MODPATH 5.0                                                                                                                                                                                                                                                     

 FILE UNIT NUMBER  10 HAS BEEN CONNECTED TO <E_MODPATH_particle set.mdf>
 FILE UNIT NUMBER  19 HAS BEEN CONNECTED TO <C:\pest\A\E_MODFLOW\E.dis>
 FILE UNIT NUMBER  71 WILL BE CONNECTED TO <E_MODPATH_particle set.loc>
 FILE UNIT NUMBER  75 WILL BE CONNECTED TO <E_MODPATH_particle set.ept>
 FILE UNIT NUMBER  76 WILL BE CONNECTED TO <E_MODPATH_particle set.pth>
 FILE UNIT NUMBER 730 HAS BEEN CONNECTED TO <C:\pest\A\E_MODFLOW\E.hed>
 FILE UNIT NUMBER  40 HAS BEEN CONNECTED TO <C:\pest\A\E_MODFLOW\E.ccf>
 

 DISCRETIZATION INPUT DATA READ FROM UNIT 19
 # MF2K DISCRETIZATION FILE
 #
 #
 # NLAY NROW NCOL NPER TIMEUNITS LENUNITS
    5 LAYERS       169 ROWS       213 COLUMNS
   1 STRESS PERIOD(S) IN SIMULATION
 MODEL TIME UNIT IS DAYS
 MODEL LENGTH UNIT IS METERS
  Confining bed flag for each layer:
   0   0   0   0   0
  IRCHTP=            1      IEVTTP=            1
 MAXIMUM NUMBER OF PARTICLES IS   500000
 6878490 ELEMENTS IN THE "A" ARRAY



                               DELR
 READING ON UNIT  19 WITH FORMAT: (FREE)              



                               DELC
 READING ON UNIT  19 WITH FORMAT: (FREE)              


 STRESS PERIOD     LENGTH       TIME STEPS     MULTIPLIER FOR DELT    SS FLAG
 ----------------------------------------------------------------------------
        1         1.000000          1                    1.000         SS

 STEADY-STATE SIMULATION



  
  213 COLUMNS  169 ROWS    5 LAYERS    0 CONFINING LAYERS
 IGRID (GRID TYPE CODE) IS 0
  
 LAYCON (LAYER TYPE CODES):
  1  1  1  1  1



           IBOUND                   FOR LAYER   1
 READING ON UNIT  10 WITH FORMAT: (FREE)              



           IBOUND                   FOR LAYER   2
 READING ON UNIT  10 WITH FORMAT: (FREE)              



           IBOUND                   FOR LAYER   3
 READING ON UNIT  10 WITH FORMAT: (FREE)              



           IBOUND                   FOR LAYER   4
 READING ON UNIT  10 WITH FORMAT: (FREE)              



           IBOUND                   FOR LAYER   5
 READING ON UNIT  10 WITH FORMAT: (FREE)              

 POROSITY                 =  0.3000000     FOR LAYER   1

 POROSITY                 =  0.3000000     FOR LAYER   2

 POROSITY                 =  0.3000000     FOR LAYER   3

 POROSITY                 =  0.3000000     FOR LAYER   4

 POROSITY                 =  0.3000000     FOR LAYER   5
 Single Precision Binary Files determined from Head file
  
  ---------------
 HEADS WERE READ FOR LAYER   1, STRESS PERIOD   1 TIME STEP    1
 HEADS WERE READ FOR LAYER   2, STRESS PERIOD   1 TIME STEP    1
 HEADS WERE READ FOR LAYER   3, STRESS PERIOD   1 TIME STEP    1
 HEADS WERE READ FOR LAYER   4, STRESS PERIOD   1 TIME STEP    1
 HEADS WERE READ FOR LAYER   5, STRESS PERIOD   1 TIME STEP    1
 HEADS HAVE BEEN READ
 READING FLOW PACKAGE BUDGET DATA FOR STRESS PERIOD    1 , TIME STEP    1 ...
 Reading    CONSTANT HEAD for Period    1   Time Step    1
 Reading FLOW RIGHT FACE  for Period    1   Time Step    1
 Reading FLOW FRONT FACE  for Period    1   Time Step    1
 Reading FLOW LOWER FACE  for Period    1   Time Step    1
   FLOW RATES BETWEEN CELLS HAVE BEEN READ
 Reading           DRAINS for Period    1   Time Step    1
 Reading    RIVER LEAKAGE for Period    1   Time Step    1
FACE 6 OF (J,I,K) =   90,  97,   2 IS NOT A BOUNDARY FACE.    RIVER LEAKAGE FLOW TREATED AS SOURCE/SINK TERM
FACE 6 OF (J,I,K) =   90,  96,   2 IS NOT A BOUNDARY FACE.    RIVER LEAKAGE FLOW TREATED AS SOURCE/SINK TERM
FACE 6 OF (J,I,K) =   89,  96,   2 IS NOT A BOUNDARY FACE.    RIVER LEAKAGE FLOW TREATED AS SOURCE/SINK TERM
FACE 6 OF (J,I,K) =   88,  96,   2 IS NOT A BOUNDARY FACE.    RIVER LEAKAGE FLOW TREATED AS SOURCE/SINK TERM
FACE 6 OF (J,I,K) =   87,  95,   2 IS NOT A BOUNDARY FACE.    RIVER LEAKAGE FLOW TREATED AS SOURCE/SINK TERM
FACE 6 OF (J,I,K) =   86,  95,   2 IS NOT A BOUNDARY FACE.    RIVER LEAKAGE FLOW TREATED AS SOURCE/SINK TERM
FACE 6 OF (J,I,K) =   85,  95,   2 IS NOT A BOUNDARY FACE.    RIVER LEAKAGE FLOW TREATED AS SOURCE/SINK TERM
FACE 6 OF (J,I,K) =   85,  94,   2 IS NOT A BOUNDARY FACE.    RIVER LEAKAGE FLOW TREATED AS SOURCE/SINK TERM
FACE 6 OF (J,I,K) =   84,  94,   2 IS NOT A BOUNDARY FACE.    RIVER LEAKAGE FLOW TREATED AS SOURCE/SINK TERM
FACE 6 OF (J,I,K) =   83,  94,   2 IS NOT A BOUNDARY FACE.    RIVER LEAKAGE FLOW TREATED AS SOURCE/SINK TERM
FACE 6 OF (J,I,K) =   80,  92,   2 IS NOT A BOUNDARY FACE.    RIVER LEAKAGE FLOW TREATED AS SOURCE/SINK TERM
FACE 6 OF (J,I,K) =   78,  91,   2 IS NOT A BOUNDARY FACE.    RIVER LEAKAGE FLOW TREATED AS SOURCE/SINK TERM
FACE 6 OF (J,I,K) =   75,  91,   2 IS NOT A BOUNDARY FACE.    RIVER LEAKAGE FLOW TREATED AS SOURCE/SINK TERM
FACE 6 OF (J,I,K) =   75,  90,   2 IS NOT A BOUNDARY FACE.    RIVER LEAKAGE FLOW TREATED AS SOURCE/SINK TERM
FACE 6 OF (J,I,K) =   74,  90,   2 IS NOT A BOUNDARY FACE.    RIVER LEAKAGE FLOW TREATED AS SOURCE/SINK TERM
FACE 6 OF (J,I,K) =   73,  90,   2 IS NOT A BOUNDARY FACE.    RIVER LEAKAGE FLOW TREATED AS SOURCE/SINK TERM
FACE 6 OF (J,I,K) =   73,  89,   2 IS NOT A BOUNDARY FACE.    RIVER LEAKAGE FLOW TREATED AS SOURCE/SINK TERM
FACE 6 OF (J,I,K) =   72,  89,   2 IS NOT A BOUNDARY FACE.    RIVER LEAKAGE FLOW TREATED AS SOURCE/SINK TERM
FACE 6 OF (J,I,K) =   71,  89,   2 IS NOT A BOUNDARY FACE.    RIVER LEAKAGE FLOW TREATED AS SOURCE/SINK TERM
FACE 6 OF (J,I,K) =   70,  89,   2 IS NOT A BOUNDARY FACE.    RIVER LEAKAGE FLOW TREATED AS SOURCE/SINK TERM
FACE 6 OF (J,I,K) =   70,  88,   2 IS NOT A BOUNDARY FACE.    RIVER LEAKAGE FLOW TREATED AS SOURCE/SINK TERM
FACE 6 OF (J,I,K) =   69,  88,   2 IS NOT A BOUNDARY FACE.    RIVER LEAKAGE FLOW TREATED AS SOURCE/SINK TERM
FACE 6 OF (J,I,K) =   68,  88,   2 IS NOT A BOUNDARY FACE.    RIVER LEAKAGE FLOW TREATED AS SOURCE/SINK TERM
FACE 6 OF (J,I,K) =   67,  88,   2 IS NOT A BOUNDARY FACE.    RIVER LEAKAGE FLOW TREATED AS SOURCE/SINK TERM
FACE 6 OF (J,I,K) =   66,  88,   2 IS NOT A BOUNDARY FACE.    RIVER LEAKAGE FLOW TREATED AS SOURCE/SINK TERM
FACE 6 OF (J,I,K) =   66,  87,   2 IS NOT A BOUNDARY FACE.    RIVER LEAKAGE FLOW TREATED AS SOURCE/SINK TERM
FACE 6 OF (J,I,K) =   65,  87,   2 IS NOT A BOUNDARY FACE.    RIVER LEAKAGE FLOW TREATED AS SOURCE/SINK TERM
FACE 6 OF (J,I,K) =   64,  87,   2 IS NOT A BOUNDARY FACE.    RIVER LEAKAGE FLOW TREATED AS SOURCE/SINK TERM
FACE 6 OF (J,I,K) =   63,  87,   2 IS NOT A BOUNDARY FACE.    RIVER LEAKAGE FLOW TREATED AS SOURCE/SINK TERM
FACE 6 OF (J,I,K) =   63,  86,   2 IS NOT A BOUNDARY FACE.    RIVER LEAKAGE FLOW TREATED AS SOURCE/SINK TERM
FACE 6 OF (J,I,K) =   62,  86,   2 IS NOT A BOUNDARY FACE.    RIVER LEAKAGE FLOW TREATED AS SOURCE/SINK TERM
FACE 6 OF (J,I,K) =   61,  86,   2 IS NOT A BOUNDARY FACE.    RIVER LEAKAGE FLOW TREATED AS SOURCE/SINK TERM
FACE 6 OF (J,I,K) =   60,  86,   2 IS NOT A BOUNDARY FACE.    RIVER LEAKAGE FLOW TREATED AS SOURCE/SINK TERM
FACE 6 OF (J,I,K) =   59,  86,   2 IS NOT A BOUNDARY FACE.    RIVER LEAKAGE FLOW TREATED AS SOURCE/SINK TERM
FACE 6 OF (J,I,K) =   59,  85,   2 IS NOT A BOUNDARY FACE.    RIVER LEAKAGE FLOW TREATED AS SOURCE/SINK TERM
FACE 6 OF (J,I,K) =   58,  85,   2 IS NOT A BOUNDARY FACE.    RIVER LEAKAGE FLOW TREATED AS SOURCE/SINK TERM
FACE 6 OF (J,I,K) =  127, 102,   2 IS NOT A BOUNDARY FACE.    RIVER LEAKAGE FLOW TREATED AS SOURCE/SINK TERM
FACE 6 OF (J,I,K) =  126, 102,   2 IS NOT A BOUNDARY FACE.    RIVER LEAKAGE FLOW TREATED AS SOURCE/SINK TERM
FACE 6 OF (J,I,K) =  125, 102,   2 IS NOT A BOUNDARY FACE.    RIVER LEAKAGE FLOW TREATED AS SOURCE/SINK TERM
FACE 6 OF (J,I,K) =  116, 102,   2 IS NOT A BOUNDARY FACE.    RIVER LEAKAGE FLOW TREATED AS SOURCE/SINK TERM
FACE 6 OF (J,I,K) =  115, 102,   2 IS NOT A BOUNDARY FACE.    RIVER LEAKAGE FLOW TREATED AS SOURCE/SINK TERM
FACE 6 OF (J,I,K) =  114, 102,   2 IS NOT A BOUNDARY FACE.    RIVER LEAKAGE FLOW TREATED AS SOURCE/SINK TERM
FACE 6 OF (J,I,K) =  113, 102,   2 IS NOT A BOUNDARY FACE.    RIVER LEAKAGE FLOW TREATED AS SOURCE/SINK TERM
FACE 6 OF (J,I,K) =  112, 102,   2 IS NOT A BOUNDARY FACE.    RIVER LEAKAGE FLOW TREATED AS SOURCE/SINK TERM
FACE 6 OF (J,I,K) =  111, 102,   2 IS NOT A BOUNDARY FACE.    RIVER LEAKAGE FLOW TREATED AS SOURCE/SINK TERM
FACE 6 OF (J,I,K) =  110, 102,   2 IS NOT A BOUNDARY FACE.    RIVER LEAKAGE FLOW TREATED AS SOURCE/SINK TERM
FACE 6 OF (J,I,K) =  109, 102,   2 IS NOT A BOUNDARY FACE.    RIVER LEAKAGE FLOW TREATED AS SOURCE/SINK TERM
FACE 6 OF (J,I,K) =  108, 102,   2 IS NOT A BOUNDARY FACE.    RIVER LEAKAGE FLOW TREATED AS SOURCE/SINK TERM
FACE 6 OF (J,I,K) =  107, 102,   2 IS NOT A BOUNDARY FACE.    RIVER LEAKAGE FLOW TREATED AS SOURCE/SINK TERM
FACE 6 OF (J,I,K) =  105, 101,   2 IS NOT A BOUNDARY FACE.    RIVER LEAKAGE FLOW TREATED AS SOURCE/SINK TERM
FACE 6 OF (J,I,K) =  136,  71,   2 IS NOT A BOUNDARY FACE.    RIVER LEAKAGE FLOW TREATED AS SOURCE/SINK TERM
FACE 6 OF (J,I,K) =  136,  70,   2 IS NOT A BOUNDARY FACE.    RIVER LEAKAGE FLOW TREATED AS SOURCE/SINK TERM
FACE 6 OF (J,I,K) =  136,  69,   2 IS NOT A BOUNDARY FACE.    RIVER LEAKAGE FLOW TREATED AS SOURCE/SINK TERM
FACE 6 OF (J,I,K) =  136,  68,   2 IS NOT A BOUNDARY FACE.    RIVER LEAKAGE FLOW TREATED AS SOURCE/SINK TERM
FACE 6 OF (J,I,K) =  136,  69,   2 IS NOT A BOUNDARY FACE.    RIVER LEAKAGE FLOW TREATED AS SOURCE/SINK TERM
FACE 6 OF (J,I,K) =  136,  70,   2 IS NOT A BOUNDARY FACE.    RIVER LEAKAGE FLOW TREATED AS SOURCE/SINK TERM
FACE 6 OF (J,I,K) =  136,  71,   2 IS NOT A BOUNDARY FACE.    RIVER LEAKAGE FLOW TREATED AS SOURCE/SINK TERM
FACE 6 OF (J,I,K) =  130,  75,   2 IS NOT A BOUNDARY FACE.    RIVER LEAKAGE FLOW TREATED AS SOURCE/SINK TERM
FACE 6 OF (J,I,K) =  130,  74,   2 IS NOT A BOUNDARY FACE.    RIVER LEAKAGE FLOW TREATED AS SOURCE/SINK TERM
FACE 6 OF (J,I,K) =  129,  74,   2 IS NOT A BOUNDARY FACE.    RIVER LEAKAGE FLOW TREATED AS SOURCE/SINK TERM
FACE 6 OF (J,I,K) =  128,  74,   2 IS NOT A BOUNDARY FACE.    RIVER LEAKAGE FLOW TREATED AS SOURCE/SINK TERM
FACE 6 OF (J,I,K) =  127,  74,   2 IS NOT A BOUNDARY FACE.    RIVER LEAKAGE FLOW TREATED AS SOURCE/SINK TERM
FACE 6 OF (J,I,K) =  134,  53,   2 IS NOT A BOUNDARY FACE.    RIVER LEAKAGE FLOW TREATED AS SOURCE/SINK TERM
FACE 6 OF (J,I,K) =  134,  52,   2 IS NOT A BOUNDARY FACE.    RIVER LEAKAGE FLOW TREATED AS SOURCE/SINK TERM
FACE 6 OF (J,I,K) =  133,  52,   2 IS NOT A BOUNDARY FACE.    RIVER LEAKAGE FLOW TREATED AS SOURCE/SINK TERM
FACE 6 OF (J,I,K) =  133,  50,   2 IS NOT A BOUNDARY FACE.    RIVER LEAKAGE FLOW TREATED AS SOURCE/SINK TERM
FACE 6 OF (J,I,K) =  133,  49,   2 IS NOT A BOUNDARY FACE.    RIVER LEAKAGE FLOW TREATED AS SOURCE/SINK TERM
FACE 6 OF (J,I,K) =  132,  49,   2 IS NOT A BOUNDARY FACE.    RIVER LEAKAGE FLOW TREATED AS SOURCE/SINK TERM
FACE 6 OF (J,I,K) =  132,  48,   2 IS NOT A BOUNDARY FACE.    RIVER LEAKAGE FLOW TREATED AS SOURCE/SINK TERM
FACE 6 OF (J,I,K) =  131,  48,   2 IS NOT A BOUNDARY FACE.    RIVER LEAKAGE FLOW TREATED AS SOURCE/SINK TERM
FACE 6 OF (J,I,K) =  130,  48,   2 IS NOT A BOUNDARY FACE.    RIVER LEAKAGE FLOW TREATED AS SOURCE/SINK TERM
FACE 6 OF (J,I,K) =  129,  48,   2 IS NOT A BOUNDARY FACE.    RIVER LEAKAGE FLOW TREATED AS SOURCE/SINK TERM
FACE 6 OF (J,I,K) =  128,  48,   2 IS NOT A BOUNDARY FACE.    RIVER LEAKAGE FLOW TREATED AS SOURCE/SINK TERM
FACE 6 OF (J,I,K) =  127,  48,   2 IS NOT A BOUNDARY FACE.    RIVER LEAKAGE FLOW TREATED AS SOURCE/SINK TERM
FACE 6 OF (J,I,K) =  126,  48,   2 IS NOT A BOUNDARY FACE.    RIVER LEAKAGE FLOW TREATED AS SOURCE/SINK TERM
FACE 6 OF (J,I,K) =  126,  47,   2 IS NOT A BOUNDARY FACE.    RIVER LEAKAGE FLOW TREATED AS SOURCE/SINK TERM
FACE 6 OF (J,I,K) =  125,  47,   2 IS NOT A BOUNDARY FACE.    RIVER LEAKAGE FLOW TREATED AS SOURCE/SINK TERM
FACE 6 OF (J,I,K) =  125,  46,   2 IS NOT A BOUNDARY FACE.    RIVER LEAKAGE FLOW TREATED AS SOURCE/SINK TERM
FACE 6 OF (J,I,K) =  124,  46,   2 IS NOT A BOUNDARY FACE.    RIVER LEAKAGE FLOW TREATED AS SOURCE/SINK TERM
FACE 6 OF (J,I,K) =  124,  45,   2 IS NOT A BOUNDARY FACE.    RIVER LEAKAGE FLOW TREATED AS SOURCE/SINK TERM
FACE 6 OF (J,I,K) =  123,  45,   2 IS NOT A BOUNDARY FACE.    RIVER LEAKAGE FLOW TREATED AS SOURCE/SINK TERM
FACE 6 OF (J,I,K) =  123,  44,   2 IS NOT A BOUNDARY FACE.    RIVER LEAKAGE FLOW TREATED AS SOURCE/SINK TERM
FACE 6 OF (J,I,K) =  123,  43,   2 IS NOT A BOUNDARY FACE.    RIVER LEAKAGE FLOW TREATED AS SOURCE/SINK TERM
FACE 6 OF (J,I,K) =  122,  43,   2 IS NOT A BOUNDARY FACE.    RIVER LEAKAGE FLOW TREATED AS SOURCE/SINK TERM
FACE 6 OF (J,I,K) =  122,  42,   2 IS NOT A BOUNDARY FACE.    RIVER LEAKAGE FLOW TREATED AS SOURCE/SINK TERM
FACE 6 OF (J,I,K) =  122,  41,   2 IS NOT A BOUNDARY FACE.    RIVER LEAKAGE FLOW TREATED AS SOURCE/SINK TERM
FACE 6 OF (J,I,K) =  122,  40,   2 IS NOT A BOUNDARY FACE.    RIVER LEAKAGE FLOW TREATED AS SOURCE/SINK TERM
FACE 6 OF (J,I,K) =  122,  39,   2 IS NOT A BOUNDARY FACE.    RIVER LEAKAGE FLOW TREATED AS SOURCE/SINK TERM
FACE 6 OF (J,I,K) =   55, 124,   2 IS NOT A BOUNDARY FACE.    RIVER LEAKAGE FLOW TREATED AS SOURCE/SINK TERM
FACE 6 OF (J,I,K) =   55, 125,   2 IS NOT A BOUNDARY FACE.    RIVER LEAKAGE FLOW TREATED AS SOURCE/SINK TERM
FACE 6 OF (J,I,K) =   55, 126,   2 IS NOT A BOUNDARY FACE.    RIVER LEAKAGE FLOW TREATED AS SOURCE/SINK TERM
FACE 6 OF (J,I,K) =   55, 127,   2 IS NOT A BOUNDARY FACE.    RIVER LEAKAGE FLOW TREATED AS SOURCE/SINK TERM
FACE 6 OF (J,I,K) =   55, 128,   2 IS NOT A BOUNDARY FACE.    RIVER LEAKAGE FLOW TREATED AS SOURCE/SINK TERM
FACE 6 OF (J,I,K) =   55, 129,   2 IS NOT A BOUNDARY FACE.    RIVER LEAKAGE FLOW TREATED AS SOURCE/SINK TERM
FACE 6 OF (J,I,K) =   55, 130,   2 IS NOT A BOUNDARY FACE.    RIVER LEAKAGE FLOW TREATED AS SOURCE/SINK TERM
FACE 6 OF (J,I,K) =   55, 131,   2 IS NOT A BOUNDARY FACE.    RIVER LEAKAGE FLOW TREATED AS SOURCE/SINK TERM
FACE 6 OF (J,I,K) =   54, 131,   2 IS NOT A BOUNDARY FACE.    RIVER LEAKAGE FLOW TREATED AS SOURCE/SINK TERM
FACE 6 OF (J,I,K) =   54, 132,   2 IS NOT A BOUNDARY FACE.    RIVER LEAKAGE FLOW TREATED AS SOURCE/SINK TERM
FACE 6 OF (J,I,K) =   54, 133,   2 IS NOT A BOUNDARY FACE.    RIVER LEAKAGE FLOW TREATED AS SOURCE/SINK TERM
FACE 6 OF (J,I,K) =   54, 134,   2 IS NOT A BOUNDARY FACE.    RIVER LEAKAGE FLOW TREATED AS SOURCE/SINK TERM
FACE 6 OF (J,I,K) =   53, 134,   2 IS NOT A BOUNDARY FACE.    RIVER LEAKAGE FLOW TREATED AS SOURCE/SINK TERM
FACE 6 OF (J,I,K) =   53, 135,   2 IS NOT A BOUNDARY FACE.    RIVER LEAKAGE FLOW TREATED AS SOURCE/SINK TERM
FACE 6 OF (J,I,K) =   52, 135,   2 IS NOT A BOUNDARY FACE.    RIVER LEAKAGE FLOW TREATED AS SOURCE/SINK TERM
FACE 6 OF (J,I,K) =   52, 136,   2 IS NOT A BOUNDARY FACE.    RIVER LEAKAGE FLOW TREATED AS SOURCE/SINK TERM
FACE 6 OF (J,I,K) =   51, 136,   2 IS NOT A BOUNDARY FACE.    RIVER LEAKAGE FLOW TREATED AS SOURCE/SINK TERM
FACE 6 OF (J,I,K) =   51, 137,   2 IS NOT A BOUNDARY FACE.    RIVER LEAKAGE FLOW TREATED AS SOURCE/SINK TERM
FACE 6 OF (J,I,K) =   50, 137,   2 IS NOT A BOUNDARY FACE.    RIVER LEAKAGE FLOW TREATED AS SOURCE/SINK TERM
FACE 6 OF (J,I,K) =   49, 137,   2 IS NOT A BOUNDARY FACE.    RIVER LEAKAGE FLOW TREATED AS SOURCE/SINK TERM
FACE 6 OF (J,I,K) =   48, 137,   2 IS NOT A BOUNDARY FACE.    RIVER LEAKAGE FLOW TREATED AS SOURCE/SINK TERM
FACE 6 OF (J,I,K) =   47, 137,   2 IS NOT A BOUNDARY FACE.    RIVER LEAKAGE FLOW TREATED AS SOURCE/SINK TERM
FACE 6 OF (J,I,K) =   46, 137,   2 IS NOT A BOUNDARY FACE.    RIVER LEAKAGE FLOW TREATED AS SOURCE/SINK TERM
FACE 6 OF (J,I,K) =   45, 137,   2 IS NOT A BOUNDARY FACE.    RIVER LEAKAGE FLOW TREATED AS SOURCE/SINK TERM
FACE 6 OF (J,I,K) =   44, 137,   2 IS NOT A BOUNDARY FACE.    RIVER LEAKAGE FLOW TREATED AS SOURCE/SINK TERM
FACE 6 OF (J,I,K) =   44, 138,   2 IS NOT A BOUNDARY FACE.    RIVER LEAKAGE FLOW TREATED AS SOURCE/SINK TERM
FACE 6 OF (J,I,K) =   43, 138,   2 IS NOT A BOUNDARY FACE.    RIVER LEAKAGE FLOW TREATED AS SOURCE/SINK TERM
FACE 6 OF (J,I,K) =   43, 139,   2 IS NOT A BOUNDARY FACE.    RIVER LEAKAGE FLOW TREATED AS SOURCE/SINK TERM
FACE 6 OF (J,I,K) =   42, 139,   2 IS NOT A BOUNDARY FACE.    RIVER LEAKAGE FLOW TREATED AS SOURCE/SINK TERM
FACE 6 OF (J,I,K) =   42, 140,   2 IS NOT A BOUNDARY FACE.    RIVER LEAKAGE FLOW TREATED AS SOURCE/SINK TERM
FACE 6 OF (J,I,K) =   41, 140,   2 IS NOT A BOUNDARY FACE.    RIVER LEAKAGE FLOW TREATED AS SOURCE/SINK TERM
FACE 6 OF (J,I,K) =   41, 141,   2 IS NOT A BOUNDARY FACE.    RIVER LEAKAGE FLOW TREATED AS SOURCE/SINK TERM
FACE 6 OF (J,I,K) =   40, 141,   2 IS NOT A BOUNDARY FACE.    RIVER LEAKAGE FLOW TREATED AS SOURCE/SINK TERM
FACE 6 OF (J,I,K) =   40, 142,   2 IS NOT A BOUNDARY FACE.    RIVER LEAKAGE FLOW TREATED AS SOURCE/SINK TERM
FACE 6 OF (J,I,K) =   39, 142,   2 IS NOT A BOUNDARY FACE.    RIVER LEAKAGE FLOW TREATED AS SOURCE/SINK TERM
FACE 6 OF (J,I,K) =  145,  54,   2 IS NOT A BOUNDARY FACE.    RIVER LEAKAGE FLOW TREATED AS SOURCE/SINK TERM
FACE 6 OF (J,I,K) =  144,  55,   2 IS NOT A BOUNDARY FACE.    RIVER LEAKAGE FLOW TREATED AS SOURCE/SINK TERM
FACE 6 OF (J,I,K) =  141,  56,   2 IS NOT A BOUNDARY FACE.    RIVER LEAKAGE FLOW TREATED AS SOURCE/SINK TERM
FACE 6 OF (J,I,K) =  139,  55,   2 IS NOT A BOUNDARY FACE.    RIVER LEAKAGE FLOW TREATED AS SOURCE/SINK TERM
FACE 6 OF (J,I,K) =  138,  55,   2 IS NOT A BOUNDARY FACE.    RIVER LEAKAGE FLOW TREATED AS SOURCE/SINK TERM
FACE 6 OF (J,I,K) =  135,  47,   2 IS NOT A BOUNDARY FACE.    RIVER LEAKAGE FLOW TREATED AS SOURCE/SINK TERM
FACE 6 OF (J,I,K) =  135,  48,   2 IS NOT A BOUNDARY FACE.    RIVER LEAKAGE FLOW TREATED AS SOURCE/SINK TERM
FACE 6 OF (J,I,K) =  134,  48,   2 IS NOT A BOUNDARY FACE.    RIVER LEAKAGE FLOW TREATED AS SOURCE/SINK TERM
FACE 6 OF (J,I,K) =  134,  49,   2 IS NOT A BOUNDARY FACE.    RIVER LEAKAGE FLOW TREATED AS SOURCE/SINK TERM
FACE 6 OF (J,I,K) =  133,  49,   2 IS NOT A BOUNDARY FACE.    RIVER LEAKAGE FLOW TREATED AS SOURCE/SINK TERM
FACE 6 OF (J,I,K) =  133,  50,   2 IS NOT A BOUNDARY FACE.    RIVER LEAKAGE FLOW TREATED AS SOURCE/SINK TERM
FACE 6 OF (J,I,K) =  134,  50,   2 IS NOT A BOUNDARY FACE.    RIVER LEAKAGE FLOW TREATED AS SOURCE/SINK TERM
FACE 6 OF (J,I,K) =  134,  51,   2 IS NOT A BOUNDARY FACE.    RIVER LEAKAGE FLOW TREATED AS SOURCE/SINK TERM
FACE 6 OF (J,I,K) =  134,  52,   2 IS NOT A BOUNDARY FACE.    RIVER LEAKAGE FLOW TREATED AS SOURCE/SINK TERM
FACE 6 OF (J,I,K) =  134,  53,   2 IS NOT A BOUNDARY FACE.    RIVER LEAKAGE FLOW TREATED AS SOURCE/SINK TERM
FACE 6 OF (J,I,K) =   94,  91,   2 IS NOT A BOUNDARY FACE.    RIVER LEAKAGE FLOW TREATED AS SOURCE/SINK TERM
FACE 6 OF (J,I,K) =   94,  90,   2 IS NOT A BOUNDARY FACE.    RIVER LEAKAGE FLOW TREATED AS SOURCE/SINK TERM
FACE 6 OF (J,I,K) =   95,  90,   2 IS NOT A BOUNDARY FACE.    RIVER LEAKAGE FLOW TREATED AS SOURCE/SINK TERM
FACE 6 OF (J,I,K) =   95,  89,   2 IS NOT A BOUNDARY FACE.    RIVER LEAKAGE FLOW TREATED AS SOURCE/SINK TERM
FACE 6 OF (J,I,K) =   95,  88,   2 IS NOT A BOUNDARY FACE.    RIVER LEAKAGE FLOW TREATED AS SOURCE/SINK TERM
FACE 6 OF (J,I,K) =   96,  88,   2 IS NOT A BOUNDARY FACE.    RIVER LEAKAGE FLOW TREATED AS SOURCE/SINK TERM
FACE 6 OF (J,I,K) =   96,  87,   2 IS NOT A BOUNDARY FACE.    RIVER LEAKAGE FLOW TREATED AS SOURCE/SINK TERM
FACE 6 OF (J,I,K) =   96,  86,   2 IS NOT A BOUNDARY FACE.    RIVER LEAKAGE FLOW TREATED AS SOURCE/SINK TERM
FACE 6 OF (J,I,K) =   97,  86,   2 IS NOT A BOUNDARY FACE.    RIVER LEAKAGE FLOW TREATED AS SOURCE/SINK TERM
FACE 6 OF (J,I,K) =   97,  85,   2 IS NOT A BOUNDARY FACE.    RIVER LEAKAGE FLOW TREATED AS SOURCE/SINK TERM
FACE 6 OF (J,I,K) =   98,  85,   2 IS NOT A BOUNDARY FACE.    RIVER LEAKAGE FLOW TREATED AS SOURCE/SINK TERM
FACE 6 OF (J,I,K) =   98,  84,   2 IS NOT A BOUNDARY FACE.    RIVER LEAKAGE FLOW TREATED AS SOURCE/SINK TERM
FACE 6 OF (J,I,K) =   98,  83,   2 IS NOT A BOUNDARY FACE.    RIVER LEAKAGE FLOW TREATED AS SOURCE/SINK TERM
FACE 6 OF (J,I,K) =   99,  83,   2 IS NOT A BOUNDARY FACE.    RIVER LEAKAGE FLOW TREATED AS SOURCE/SINK TERM
FACE 6 OF (J,I,K) =   99,  82,   2 IS NOT A BOUNDARY FACE.    RIVER LEAKAGE FLOW TREATED AS SOURCE/SINK TERM
FACE 6 OF (J,I,K) =   99,  81,   2 IS NOT A BOUNDARY FACE.    RIVER LEAKAGE FLOW TREATED AS SOURCE/SINK TERM
FACE 6 OF (J,I,K) =   99,  80,   2 IS NOT A BOUNDARY FACE.    RIVER LEAKAGE FLOW TREATED AS SOURCE/SINK TERM
FACE 6 OF (J,I,K) =   99,  79,   2 IS NOT A BOUNDARY FACE.    RIVER LEAKAGE FLOW TREATED AS SOURCE/SINK TERM
FACE 6 OF (J,I,K) =   99,  78,   2 IS NOT A BOUNDARY FACE.    RIVER LEAKAGE FLOW TREATED AS SOURCE/SINK TERM
FACE 6 OF (J,I,K) =   99,  77,   2 IS NOT A BOUNDARY FACE.    RIVER LEAKAGE FLOW TREATED AS SOURCE/SINK TERM
FACE 6 OF (J,I,K) =  100,  77,   2 IS NOT A BOUNDARY FACE.    RIVER LEAKAGE FLOW TREATED AS SOURCE/SINK TERM
FACE 6 OF (J,I,K) =  100,  76,   2 IS NOT A BOUNDARY FACE.    RIVER LEAKAGE FLOW TREATED AS SOURCE/SINK TERM
FACE 6 OF (J,I,K) =  100,  75,   2 IS NOT A BOUNDARY FACE.    RIVER LEAKAGE FLOW TREATED AS SOURCE/SINK TERM
FACE 6 OF (J,I,K) =  100,  74,   2 IS NOT A BOUNDARY FACE.    RIVER LEAKAGE FLOW TREATED AS SOURCE/SINK TERM
FACE 6 OF (J,I,K) =  100,  73,   2 IS NOT A BOUNDARY FACE.    RIVER LEAKAGE FLOW TREATED AS SOURCE/SINK TERM
FACE 6 OF (J,I,K) =  100,  72,   2 IS NOT A BOUNDARY FACE.    RIVER LEAKAGE FLOW TREATED AS SOURCE/SINK TERM
FACE 6 OF (J,I,K) =  101,  72,   2 IS NOT A BOUNDARY FACE.    RIVER LEAKAGE FLOW TREATED AS SOURCE/SINK TERM
FACE 6 OF (J,I,K) =  101,  71,   2 IS NOT A BOUNDARY FACE.    RIVER LEAKAGE FLOW TREATED AS SOURCE/SINK TERM
FACE 6 OF (J,I,K) =  101,  70,   2 IS NOT A BOUNDARY FACE.    RIVER LEAKAGE FLOW TREATED AS SOURCE/SINK TERM
FACE 6 OF (J,I,K) =   58,  85,   2 IS NOT A BOUNDARY FACE.    RIVER LEAKAGE FLOW TREATED AS SOURCE/SINK TERM
FACE 6 OF (J,I,K) =   57,  85,   2 IS NOT A BOUNDARY FACE.    RIVER LEAKAGE FLOW TREATED AS SOURCE/SINK TERM
FACE 6 OF (J,I,K) =   56,  85,   2 IS NOT A BOUNDARY FACE.    RIVER LEAKAGE FLOW TREATED AS SOURCE/SINK TERM
FACE 6 OF (J,I,K) =   55,  85,   2 IS NOT A BOUNDARY FACE.    RIVER LEAKAGE FLOW TREATED AS SOURCE/SINK TERM
FACE 6 OF (J,I,K) =   55,  84,   2 IS NOT A BOUNDARY FACE.    RIVER LEAKAGE FLOW TREATED AS SOURCE/SINK TERM
FACE 6 OF (J,I,K) =   54,  84,   2 IS NOT A BOUNDARY FACE.    RIVER LEAKAGE FLOW TREATED AS SOURCE/SINK TERM
FACE 6 OF (J,I,K) =   53,  84,   2 IS NOT A BOUNDARY FACE.    RIVER LEAKAGE FLOW TREATED AS SOURCE/SINK TERM
FACE 6 OF (J,I,K) =   52,  84,   2 IS NOT A BOUNDARY FACE.    RIVER LEAKAGE FLOW TREATED AS SOURCE/SINK TERM
FACE 6 OF (J,I,K) =   51,  84,   2 IS NOT A BOUNDARY FACE.    RIVER LEAKAGE FLOW TREATED AS SOURCE/SINK TERM
FACE 6 OF (J,I,K) =   50,  84,   2 IS NOT A BOUNDARY FACE.    RIVER LEAKAGE FLOW TREATED AS SOURCE/SINK TERM
FACE 6 OF (J,I,K) =   50,  83,   2 IS NOT A BOUNDARY FACE.    RIVER LEAKAGE FLOW TREATED AS SOURCE/SINK TERM
FACE 6 OF (J,I,K) =   49,  83,   2 IS NOT A BOUNDARY FACE.    RIVER LEAKAGE FLOW TREATED AS SOURCE/SINK TERM
FACE 6 OF (J,I,K) =   48,  83,   2 IS NOT A BOUNDARY FACE.    RIVER LEAKAGE FLOW TREATED AS SOURCE/SINK TERM
FACE 6 OF (J,I,K) =   47,  83,   2 IS NOT A BOUNDARY FACE.    RIVER LEAKAGE FLOW TREATED AS SOURCE/SINK TERM
FACE 6 OF (J,I,K) =   46,  83,   2 IS NOT A BOUNDARY FACE.    RIVER LEAKAGE FLOW TREATED AS SOURCE/SINK TERM
FACE 6 OF (J,I,K) =   46,  82,   2 IS NOT A BOUNDARY FACE.    RIVER LEAKAGE FLOW TREATED AS SOURCE/SINK TERM
FACE 6 OF (J,I,K) =   45,  82,   2 IS NOT A BOUNDARY FACE.    RIVER LEAKAGE FLOW TREATED AS SOURCE/SINK TERM
FACE 6 OF (J,I,K) =   44,  82,   2 IS NOT A BOUNDARY FACE.    RIVER LEAKAGE FLOW TREATED AS SOURCE/SINK TERM
FACE 6 OF (J,I,K) =   44,  83,   2 IS NOT A BOUNDARY FACE.    RIVER LEAKAGE FLOW TREATED AS SOURCE/SINK TERM
FACE 6 OF (J,I,K) =   43,  83,   2 IS NOT A BOUNDARY FACE.    RIVER LEAKAGE FLOW TREATED AS SOURCE/SINK TERM
FACE 6 OF (J,I,K) =   43,  84,   2 IS NOT A BOUNDARY FACE.    RIVER LEAKAGE FLOW TREATED AS SOURCE/SINK TERM
FACE 6 OF (J,I,K) =   42,  84,   2 IS NOT A BOUNDARY FACE.    RIVER LEAKAGE FLOW TREATED AS SOURCE/SINK TERM
FACE 6 OF (J,I,K) =   42,  85,   2 IS NOT A BOUNDARY FACE.    RIVER LEAKAGE FLOW TREATED AS SOURCE/SINK TERM
FACE 6 OF (J,I,K) =   41,  85,   2 IS NOT A BOUNDARY FACE.    RIVER LEAKAGE FLOW TREATED AS SOURCE/SINK TERM
FACE 6 OF (J,I,K) =   41,  86,   2 IS NOT A BOUNDARY FACE.    RIVER LEAKAGE FLOW TREATED AS SOURCE/SINK TERM
FACE 6 OF (J,I,K) =   40,  86,   2 IS NOT A BOUNDARY FACE.    RIVER LEAKAGE FLOW TREATED AS SOURCE/SINK TERM
FACE 6 OF (J,I,K) =   39,  86,   2 IS NOT A BOUNDARY FACE.    RIVER LEAKAGE FLOW TREATED AS SOURCE/SINK TERM
FACE 6 OF (J,I,K) =   39,  87,   2 IS NOT A BOUNDARY FACE.    RIVER LEAKAGE FLOW TREATED AS SOURCE/SINK TERM
FACE 6 OF (J,I,K) =   38,  87,   2 IS NOT A BOUNDARY FACE.    RIVER LEAKAGE FLOW TREATED AS SOURCE/SINK TERM
FACE 6 OF (J,I,K) =   38,  88,   2 IS NOT A BOUNDARY FACE.    RIVER LEAKAGE FLOW TREATED AS SOURCE/SINK TERM
FACE 6 OF (J,I,K) =   37,  88,   2 IS NOT A BOUNDARY FACE.    RIVER LEAKAGE FLOW TREATED AS SOURCE/SINK TERM
FACE 6 OF (J,I,K) =   37,  89,   2 IS NOT A BOUNDARY FACE.    RIVER LEAKAGE FLOW TREATED AS SOURCE/SINK TERM
FACE 6 OF (J,I,K) =   36,  89,   2 IS NOT A BOUNDARY FACE.    RIVER LEAKAGE FLOW TREATED AS SOURCE/SINK TERM
FACE 6 OF (J,I,K) =   36,  90,   2 IS NOT A BOUNDARY FACE.    RIVER LEAKAGE FLOW TREATED AS SOURCE/SINK TERM
FACE 6 OF (J,I,K) =   36,  91,   2 IS NOT A BOUNDARY FACE.    RIVER LEAKAGE FLOW TREATED AS SOURCE/SINK TERM
FACE 6 OF (J,I,K) =   36,  92,   2 IS NOT A BOUNDARY FACE.    RIVER LEAKAGE FLOW TREATED AS SOURCE/SINK TERM
FACE 6 OF (J,I,K) =   37,  92,   2 IS NOT A BOUNDARY FACE.    RIVER LEAKAGE FLOW TREATED AS SOURCE/SINK TERM
FACE 6 OF (J,I,K) =   37,  93,   2 IS NOT A BOUNDARY FACE.    RIVER LEAKAGE FLOW TREATED AS SOURCE/SINK TERM
FACE 6 OF (J,I,K) =   37,  94,   2 IS NOT A BOUNDARY FACE.    RIVER LEAKAGE FLOW TREATED AS SOURCE/SINK TERM
FACE 6 OF (J,I,K) =   37,  95,   2 IS NOT A BOUNDARY FACE.    RIVER LEAKAGE FLOW TREATED AS SOURCE/SINK TERM
FACE 6 OF (J,I,K) =   37,  96,   2 IS NOT A BOUNDARY FACE.    RIVER LEAKAGE FLOW TREATED AS SOURCE/SINK TERM
FACE 6 OF (J,I,K) =   37,  97,   2 IS NOT A BOUNDARY FACE.    RIVER LEAKAGE FLOW TREATED AS SOURCE/SINK TERM
FACE 6 OF (J,I,K) =   37,  98,   2 IS NOT A BOUNDARY FACE.    RIVER LEAKAGE FLOW TREATED AS SOURCE/SINK TERM
FACE 6 OF (J,I,K) =   37,  97,   2 IS NOT A BOUNDARY FACE.    RIVER LEAKAGE FLOW TREATED AS SOURCE/SINK TERM
FACE 6 OF (J,I,K) =   37,  96,   2 IS NOT A BOUNDARY FACE.    RIVER LEAKAGE FLOW TREATED AS SOURCE/SINK TERM
FACE 6 OF (J,I,K) =   37,  95,   2 IS NOT A BOUNDARY FACE.    RIVER LEAKAGE FLOW TREATED AS SOURCE/SINK TERM
FACE 6 OF (J,I,K) =   37,  94,   2 IS NOT A BOUNDARY FACE.    RIVER LEAKAGE FLOW TREATED AS SOURCE/SINK TERM
FACE 6 OF (J,I,K) =   36,  94,   2 IS NOT A BOUNDARY FACE.    RIVER LEAKAGE FLOW TREATED AS SOURCE/SINK TERM
FACE 6 OF (J,I,K) =   36,  93,   2 IS NOT A BOUNDARY FACE.    RIVER LEAKAGE FLOW TREATED AS SOURCE/SINK TERM
FACE 6 OF (J,I,K) =   36,  92,   2 IS NOT A BOUNDARY FACE.    RIVER LEAKAGE FLOW TREATED AS SOURCE/SINK TERM
FACE 6 OF (J,I,K) =   36,  91,   2 IS NOT A BOUNDARY FACE.    RIVER LEAKAGE FLOW TREATED AS SOURCE/SINK TERM
FACE 6 OF (J,I,K) =   36,  90,   2 IS NOT A BOUNDARY FACE.    RIVER LEAKAGE FLOW TREATED AS SOURCE/SINK TERM
FACE 6 OF (J,I,K) =   36,  89,   2 IS NOT A BOUNDARY FACE.    RIVER LEAKAGE FLOW TREATED AS SOURCE/SINK TERM
FACE 6 OF (J,I,K) =   35,  89,   2 IS NOT A BOUNDARY FACE.    RIVER LEAKAGE FLOW TREATED AS SOURCE/SINK TERM
FACE 6 OF (J,I,K) =   34,  89,   2 IS NOT A BOUNDARY FACE.    RIVER LEAKAGE FLOW TREATED AS SOURCE/SINK TERM
FACE 6 OF (J,I,K) =   33,  89,   2 IS NOT A BOUNDARY FACE.    RIVER LEAKAGE FLOW TREATED AS SOURCE/SINK TERM
FACE 6 OF (J,I,K) =   32,  89,   2 IS NOT A BOUNDARY FACE.    RIVER LEAKAGE FLOW TREATED AS SOURCE/SINK TERM
FACE 6 OF (J,I,K) =   31,  89,   2 IS NOT A BOUNDARY FACE.    RIVER LEAKAGE FLOW TREATED AS SOURCE/SINK TERM
FACE 6 OF (J,I,K) =   30,  89,   2 IS NOT A BOUNDARY FACE.    RIVER LEAKAGE FLOW TREATED AS SOURCE/SINK TERM
FACE 6 OF (J,I,K) =   29,  89,   2 IS NOT A BOUNDARY FACE.    RIVER LEAKAGE FLOW TREATED AS SOURCE/SINK TERM
FACE 6 OF (J,I,K) =   28,  89,   2 IS NOT A BOUNDARY FACE.    RIVER LEAKAGE FLOW TREATED AS SOURCE/SINK TERM
FACE 6 OF (J,I,K) =   27,  89,   2 IS NOT A BOUNDARY FACE.    RIVER LEAKAGE FLOW TREATED AS SOURCE/SINK TERM
FACE 6 OF (J,I,K) =   26,  89,   2 IS NOT A BOUNDARY FACE.    RIVER LEAKAGE FLOW TREATED AS SOURCE/SINK TERM
FACE 6 OF (J,I,K) =   26,  90,   2 IS NOT A BOUNDARY FACE.    RIVER LEAKAGE FLOW TREATED AS SOURCE/SINK TERM
FACE 6 OF (J,I,K) =   25,  90,   2 IS NOT A BOUNDARY FACE.    RIVER LEAKAGE FLOW TREATED AS SOURCE/SINK TERM
FACE 6 OF (J,I,K) =   77, 117,   2 IS NOT A BOUNDARY FACE.    RIVER LEAKAGE FLOW TREATED AS SOURCE/SINK TERM
FACE 6 OF (J,I,K) =   75, 116,   2 IS NOT A BOUNDARY FACE.    RIVER LEAKAGE FLOW TREATED AS SOURCE/SINK TERM
FACE 6 OF (J,I,K) =   74, 116,   2 IS NOT A BOUNDARY FACE.    RIVER LEAKAGE FLOW TREATED AS SOURCE/SINK TERM
FACE 6 OF (J,I,K) =   64, 116,   2 IS NOT A BOUNDARY FACE.    RIVER LEAKAGE FLOW TREATED AS SOURCE/SINK TERM
FACE 6 OF (J,I,K) =   64, 117,   2 IS NOT A BOUNDARY FACE.    RIVER LEAKAGE FLOW TREATED AS SOURCE/SINK TERM
FACE 6 OF (J,I,K) =   61, 117,   2 IS NOT A BOUNDARY FACE.    RIVER LEAKAGE FLOW TREATED AS SOURCE/SINK TERM
FACE 6 OF (J,I,K) =   60, 117,   2 IS NOT A BOUNDARY FACE.    RIVER LEAKAGE FLOW TREATED AS SOURCE/SINK TERM
FACE 6 OF (J,I,K) =   60, 118,   2 IS NOT A BOUNDARY FACE.    RIVER LEAKAGE FLOW TREATED AS SOURCE/SINK TERM
FACE 6 OF (J,I,K) =   59, 118,   2 IS NOT A BOUNDARY FACE.    RIVER LEAKAGE FLOW TREATED AS SOURCE/SINK TERM
FACE 6 OF (J,I,K) =   59, 119,   2 IS NOT A BOUNDARY FACE.    RIVER LEAKAGE FLOW TREATED AS SOURCE/SINK TERM
FACE 6 OF (J,I,K) =   58, 119,   2 IS NOT A BOUNDARY FACE.    RIVER LEAKAGE FLOW TREATED AS SOURCE/SINK TERM
FACE 6 OF (J,I,K) =   58, 120,   2 IS NOT A BOUNDARY FACE.    RIVER LEAKAGE FLOW TREATED AS SOURCE/SINK TERM
FACE 6 OF (J,I,K) =   57, 120,   2 IS NOT A BOUNDARY FACE.    RIVER LEAKAGE FLOW TREATED AS SOURCE/SINK TERM
FACE 6 OF (J,I,K) =   57, 121,   2 IS NOT A BOUNDARY FACE.    RIVER LEAKAGE FLOW TREATED AS SOURCE/SINK TERM
FACE 6 OF (J,I,K) =   57, 122,   2 IS NOT A BOUNDARY FACE.    RIVER LEAKAGE FLOW TREATED AS SOURCE/SINK TERM
FACE 6 OF (J,I,K) =   56, 122,   2 IS NOT A BOUNDARY FACE.    RIVER LEAKAGE FLOW TREATED AS SOURCE/SINK TERM
FACE 6 OF (J,I,K) =   56, 123,   2 IS NOT A BOUNDARY FACE.    RIVER LEAKAGE FLOW TREATED AS SOURCE/SINK TERM
FACE 6 OF (J,I,K) =   55, 123,   2 IS NOT A BOUNDARY FACE.    RIVER LEAKAGE FLOW TREATED AS SOURCE/SINK TERM
FACE 6 OF (J,I,K) =   54, 123,   2 IS NOT A BOUNDARY FACE.    RIVER LEAKAGE FLOW TREATED AS SOURCE/SINK TERM
FACE 6 OF (J,I,K) =   53, 123,   2 IS NOT A BOUNDARY FACE.    RIVER LEAKAGE FLOW TREATED AS SOURCE/SINK TERM
FACE 6 OF (J,I,K) =   52, 123,   2 IS NOT A BOUNDARY FACE.    RIVER LEAKAGE FLOW TREATED AS SOURCE/SINK TERM
FACE 6 OF (J,I,K) =   51, 123,   2 IS NOT A BOUNDARY FACE.    RIVER LEAKAGE FLOW TREATED AS SOURCE/SINK TERM
FACE 6 OF (J,I,K) =   50, 123,   2 IS NOT A BOUNDARY FACE.    RIVER LEAKAGE FLOW TREATED AS SOURCE/SINK TERM
FACE 6 OF (J,I,K) =   49, 123,   2 IS NOT A BOUNDARY FACE.    RIVER LEAKAGE FLOW TREATED AS SOURCE/SINK TERM
FACE 6 OF (J,I,K) =   49, 122,   2 IS NOT A BOUNDARY FACE.    RIVER LEAKAGE FLOW TREATED AS SOURCE/SINK TERM
FACE 6 OF (J,I,K) =   48, 122,   2 IS NOT A BOUNDARY FACE.    RIVER LEAKAGE FLOW TREATED AS SOURCE/SINK TERM
FACE 6 OF (J,I,K) =   47, 122,   2 IS NOT A BOUNDARY FACE.    RIVER LEAKAGE FLOW TREATED AS SOURCE/SINK TERM
FACE 6 OF (J,I,K) =   46, 122,   2 IS NOT A BOUNDARY FACE.    RIVER LEAKAGE FLOW TREATED AS SOURCE/SINK TERM
FACE 6 OF (J,I,K) =   46, 121,   2 IS NOT A BOUNDARY FACE.    RIVER LEAKAGE FLOW TREATED AS SOURCE/SINK TERM
FACE 6 OF (J,I,K) =   45, 121,   2 IS NOT A BOUNDARY FACE.    RIVER LEAKAGE FLOW TREATED AS SOURCE/SINK TERM
FACE 6 OF (J,I,K) =   45, 120,   2 IS NOT A BOUNDARY FACE.    RIVER LEAKAGE FLOW TREATED AS SOURCE/SINK TERM
FACE 6 OF (J,I,K) =   44, 120,   2 IS NOT A BOUNDARY FACE.    RIVER LEAKAGE FLOW TREATED AS SOURCE/SINK TERM
FACE 6 OF (J,I,K) =   43, 120,   2 IS NOT A BOUNDARY FACE.    RIVER LEAKAGE FLOW TREATED AS SOURCE/SINK TERM
FACE 6 OF (J,I,K) =   43, 119,   2 IS NOT A BOUNDARY FACE.    RIVER LEAKAGE FLOW TREATED AS SOURCE/SINK TERM
FACE 6 OF (J,I,K) =   42, 119,   2 IS NOT A BOUNDARY FACE.    RIVER LEAKAGE FLOW TREATED AS SOURCE/SINK TERM
FACE 6 OF (J,I,K) =   42, 118,   2 IS NOT A BOUNDARY FACE.    RIVER LEAKAGE FLOW TREATED AS SOURCE/SINK TERM
FACE 6 OF (J,I,K) =   41, 118,   2 IS NOT A BOUNDARY FACE.    RIVER LEAKAGE FLOW TREATED AS SOURCE/SINK TERM
FACE 6 OF (J,I,K) =   41, 117,   2 IS NOT A BOUNDARY FACE.    RIVER LEAKAGE FLOW TREATED AS SOURCE/SINK TERM
FACE 6 OF (J,I,K) =   41, 116,   2 IS NOT A BOUNDARY FACE.    RIVER LEAKAGE FLOW TREATED AS SOURCE/SINK TERM
FACE 6 OF (J,I,K) =   40, 116,   2 IS NOT A BOUNDARY FACE.    RIVER LEAKAGE FLOW TREATED AS SOURCE/SINK TERM
FACE 6 OF (J,I,K) =   40, 115,   2 IS NOT A BOUNDARY FACE.    RIVER LEAKAGE FLOW TREATED AS SOURCE/SINK TERM
FACE 6 OF (J,I,K) =   40, 114,   2 IS NOT A BOUNDARY FACE.    RIVER LEAKAGE FLOW TREATED AS SOURCE/SINK TERM
FACE 6 OF (J,I,K) =   39, 114,   2 IS NOT A BOUNDARY FACE.    RIVER LEAKAGE FLOW TREATED AS SOURCE/SINK TERM
FACE 6 OF (J,I,K) =   39, 113,   2 IS NOT A BOUNDARY FACE.    RIVER LEAKAGE FLOW TREATED AS SOURCE/SINK TERM
FACE 6 OF (J,I,K) =   39, 112,   2 IS NOT A BOUNDARY FACE.    RIVER LEAKAGE FLOW TREATED AS SOURCE/SINK TERM
FACE 6 OF (J,I,K) =   39, 111,   2 IS NOT A BOUNDARY FACE.    RIVER LEAKAGE FLOW TREATED AS SOURCE/SINK TERM
FACE 6 OF (J,I,K) =   38, 111,   2 IS NOT A BOUNDARY FACE.    RIVER LEAKAGE FLOW TREATED AS SOURCE/SINK TERM
FACE 6 OF (J,I,K) =   38, 110,   2 IS NOT A BOUNDARY FACE.    RIVER LEAKAGE FLOW TREATED AS SOURCE/SINK TERM
FACE 6 OF (J,I,K) =   38, 109,   2 IS NOT A BOUNDARY FACE.    RIVER LEAKAGE FLOW TREATED AS SOURCE/SINK TERM
FACE 6 OF (J,I,K) =   37, 109,   2 IS NOT A BOUNDARY FACE.    RIVER LEAKAGE FLOW TREATED AS SOURCE/SINK TERM
FACE 6 OF (J,I,K) =   37, 108,   2 IS NOT A BOUNDARY FACE.    RIVER LEAKAGE FLOW TREATED AS SOURCE/SINK TERM
FACE 6 OF (J,I,K) =  111,  59,   2 IS NOT A BOUNDARY FACE.    RIVER LEAKAGE FLOW TREATED AS SOURCE/SINK TERM
FACE 6 OF (J,I,K) =  110,  58,   2 IS NOT A BOUNDARY FACE.    RIVER LEAKAGE FLOW TREATED AS SOURCE/SINK TERM
FACE 6 OF (J,I,K) =  108,  55,   2 IS NOT A BOUNDARY FACE.    RIVER LEAKAGE FLOW TREATED AS SOURCE/SINK TERM
FACE 6 OF (J,I,K) =  107,  50,   2 IS NOT A BOUNDARY FACE.    RIVER LEAKAGE FLOW TREATED AS SOURCE/SINK TERM
FACE 6 OF (J,I,K) =  106,  47,   2 IS NOT A BOUNDARY FACE.    RIVER LEAKAGE FLOW TREATED AS SOURCE/SINK TERM
FACE 6 OF (J,I,K) =  105,  47,   2 IS NOT A BOUNDARY FACE.    RIVER LEAKAGE FLOW TREATED AS SOURCE/SINK TERM
FACE 6 OF (J,I,K) =  105,  46,   2 IS NOT A BOUNDARY FACE.    RIVER LEAKAGE FLOW TREATED AS SOURCE/SINK TERM
FACE 6 OF (J,I,K) =  105,  45,   2 IS NOT A BOUNDARY FACE.    RIVER LEAKAGE FLOW TREATED AS SOURCE/SINK TERM
FACE 6 OF (J,I,K) =  105,  44,   2 IS NOT A BOUNDARY FACE.    RIVER LEAKAGE FLOW TREATED AS SOURCE/SINK TERM
FACE 6 OF (J,I,K) =  104,  44,   2 IS NOT A BOUNDARY FACE.    RIVER LEAKAGE FLOW TREATED AS SOURCE/SINK TERM
FACE 6 OF (J,I,K) =  104,  43,   2 IS NOT A BOUNDARY FACE.    RIVER LEAKAGE FLOW TREATED AS SOURCE/SINK TERM
FACE 6 OF (J,I,K) =  104,  42,   2 IS NOT A BOUNDARY FACE.    RIVER LEAKAGE FLOW TREATED AS SOURCE/SINK TERM
FACE 6 OF (J,I,K) =  104,  41,   2 IS NOT A BOUNDARY FACE.    RIVER LEAKAGE FLOW TREATED AS SOURCE/SINK TERM
FACE 6 OF (J,I,K) =  103,  41,   2 IS NOT A BOUNDARY FACE.    RIVER LEAKAGE FLOW TREATED AS SOURCE/SINK TERM
FACE 6 OF (J,I,K) =  103,  40,   2 IS NOT A BOUNDARY FACE.    RIVER LEAKAGE FLOW TREATED AS SOURCE/SINK TERM
FACE 6 OF (J,I,K) =  103,  39,   2 IS NOT A BOUNDARY FACE.    RIVER LEAKAGE FLOW TREATED AS SOURCE/SINK TERM
FACE 6 OF (J,I,K) =  103,  38,   2 IS NOT A BOUNDARY FACE.    RIVER LEAKAGE FLOW TREATED AS SOURCE/SINK TERM
FACE 6 OF (J,I,K) =  103,  37,   2 IS NOT A BOUNDARY FACE.    RIVER LEAKAGE FLOW TREATED AS SOURCE/SINK TERM
FACE 6 OF (J,I,K) =  103,  36,   2 IS NOT A BOUNDARY FACE.    RIVER LEAKAGE FLOW TREATED AS SOURCE/SINK TERM
FACE 6 OF (J,I,K) =  103,  35,   2 IS NOT A BOUNDARY FACE.    RIVER LEAKAGE FLOW TREATED AS SOURCE/SINK TERM
FACE 6 OF (J,I,K) =  103,  34,   2 IS NOT A BOUNDARY FACE.    RIVER LEAKAGE FLOW TREATED AS SOURCE/SINK TERM
FACE 6 OF (J,I,K) =  102,  34,   2 IS NOT A BOUNDARY FACE.    RIVER LEAKAGE FLOW TREATED AS SOURCE/SINK TERM
FACE 6 OF (J,I,K) =  102,  33,   2 IS NOT A BOUNDARY FACE.    RIVER LEAKAGE FLOW TREATED AS SOURCE/SINK TERM
FACE 6 OF (J,I,K) =  102,  32,   2 IS NOT A BOUNDARY FACE.    RIVER LEAKAGE FLOW TREATED AS SOURCE/SINK TERM
FACE 6 OF (J,I,K) =  102,  31,   2 IS NOT A BOUNDARY FACE.    RIVER LEAKAGE FLOW TREATED AS SOURCE/SINK TERM
FACE 6 OF (J,I,K) =  102,  30,   2 IS NOT A BOUNDARY FACE.    RIVER LEAKAGE FLOW TREATED AS SOURCE/SINK TERM
FACE 6 OF (J,I,K) =  169, 122,   2 IS NOT A BOUNDARY FACE.    RIVER LEAKAGE FLOW TREATED AS SOURCE/SINK TERM
FACE 6 OF (J,I,K) =  168, 126,   2 IS NOT A BOUNDARY FACE.    RIVER LEAKAGE FLOW TREATED AS SOURCE/SINK TERM
FACE 6 OF (J,I,K) =  167, 126,   2 IS NOT A BOUNDARY FACE.    RIVER LEAKAGE FLOW TREATED AS SOURCE/SINK TERM
FACE 6 OF (J,I,K) =  167, 127,   2 IS NOT A BOUNDARY FACE.    RIVER LEAKAGE FLOW TREATED AS SOURCE/SINK TERM
FACE 6 OF (J,I,K) =  167, 128,   2 IS NOT A BOUNDARY FACE.    RIVER LEAKAGE FLOW TREATED AS SOURCE/SINK TERM
FACE 6 OF (J,I,K) =  166, 128,   2 IS NOT A BOUNDARY FACE.    RIVER LEAKAGE FLOW TREATED AS SOURCE/SINK TERM
FACE 6 OF (J,I,K) =  166, 129,   2 IS NOT A BOUNDARY FACE.    RIVER LEAKAGE FLOW TREATED AS SOURCE/SINK TERM
FACE 6 OF (J,I,K) =  166, 130,   2 IS NOT A BOUNDARY FACE.    RIVER LEAKAGE FLOW TREATED AS SOURCE/SINK TERM
FACE 6 OF (J,I,K) =  166, 131,   2 IS NOT A BOUNDARY FACE.    RIVER LEAKAGE FLOW TREATED AS SOURCE/SINK TERM
FACE 6 OF (J,I,K) =  166, 132,   2 IS NOT A BOUNDARY FACE.    RIVER LEAKAGE FLOW TREATED AS SOURCE/SINK TERM
FACE 6 OF (J,I,K) =  166, 133,   2 IS NOT A BOUNDARY FACE.    RIVER LEAKAGE FLOW TREATED AS SOURCE/SINK TERM
FACE 6 OF (J,I,K) =  166, 134,   2 IS NOT A BOUNDARY FACE.    RIVER LEAKAGE FLOW TREATED AS SOURCE/SINK TERM
FACE 6 OF (J,I,K) =  166, 135,   2 IS NOT A BOUNDARY FACE.    RIVER LEAKAGE FLOW TREATED AS SOURCE/SINK TERM
FACE 6 OF (J,I,K) =  166, 136,   2 IS NOT A BOUNDARY FACE.    RIVER LEAKAGE FLOW TREATED AS SOURCE/SINK TERM
FACE 6 OF (J,I,K) =  166, 137,   2 IS NOT A BOUNDARY FACE.    RIVER LEAKAGE FLOW TREATED AS SOURCE/SINK TERM
FACE 6 OF (J,I,K) =  166, 138,   2 IS NOT A BOUNDARY FACE.    RIVER LEAKAGE FLOW TREATED AS SOURCE/SINK TERM
FACE 6 OF (J,I,K) =  166, 139,   2 IS NOT A BOUNDARY FACE.    RIVER LEAKAGE FLOW TREATED AS SOURCE/SINK TERM
FACE 6 OF (J,I,K) =  165, 139,   2 IS NOT A BOUNDARY FACE.    RIVER LEAKAGE FLOW TREATED AS SOURCE/SINK TERM
FACE 6 OF (J,I,K) =  165, 140,   2 IS NOT A BOUNDARY FACE.    RIVER LEAKAGE FLOW TREATED AS SOURCE/SINK TERM
FACE 6 OF (J,I,K) =  165, 141,   2 IS NOT A BOUNDARY FACE.    RIVER LEAKAGE FLOW TREATED AS SOURCE/SINK TERM
FACE 6 OF (J,I,K) =  165, 142,   2 IS NOT A BOUNDARY FACE.    RIVER LEAKAGE FLOW TREATED AS SOURCE/SINK TERM
FACE 6 OF (J,I,K) =  165, 143,   2 IS NOT A BOUNDARY FACE.    RIVER LEAKAGE FLOW TREATED AS SOURCE/SINK TERM
FACE 6 OF (J,I,K) =  165, 144,   2 IS NOT A BOUNDARY FACE.    RIVER LEAKAGE FLOW TREATED AS SOURCE/SINK TERM
FACE 6 OF (J,I,K) =  165, 145,   2 IS NOT A BOUNDARY FACE.    RIVER LEAKAGE FLOW TREATED AS SOURCE/SINK TERM
FACE 6 OF (J,I,K) =  165, 146,   2 IS NOT A BOUNDARY FACE.    RIVER LEAKAGE FLOW TREATED AS SOURCE/SINK TERM
FACE 6 OF (J,I,K) =  163,  47,   2 IS NOT A BOUNDARY FACE.    RIVER LEAKAGE FLOW TREATED AS SOURCE/SINK TERM
FACE 6 OF (J,I,K) =  163,  46,   2 IS NOT A BOUNDARY FACE.    RIVER LEAKAGE FLOW TREATED AS SOURCE/SINK TERM
FACE 6 OF (J,I,K) =  163,  45,   2 IS NOT A BOUNDARY FACE.    RIVER LEAKAGE FLOW TREATED AS SOURCE/SINK TERM
FACE 6 OF (J,I,K) =  163,  44,   2 IS NOT A BOUNDARY FACE.    RIVER LEAKAGE FLOW TREATED AS SOURCE/SINK TERM
FACE 6 OF (J,I,K) =  162,  44,   2 IS NOT A BOUNDARY FACE.    RIVER LEAKAGE FLOW TREATED AS SOURCE/SINK TERM
FACE 6 OF (J,I,K) =  162,  43,   2 IS NOT A BOUNDARY FACE.    RIVER LEAKAGE FLOW TREATED AS SOURCE/SINK TERM
FACE 6 OF (J,I,K) =  162,  42,   2 IS NOT A BOUNDARY FACE.    RIVER LEAKAGE FLOW TREATED AS SOURCE/SINK TERM
FACE 6 OF (J,I,K) =  161,  42,   2 IS NOT A BOUNDARY FACE.    RIVER LEAKAGE FLOW TREATED AS SOURCE/SINK TERM
FACE 6 OF (J,I,K) =  161,  41,   2 IS NOT A BOUNDARY FACE.    RIVER LEAKAGE FLOW TREATED AS SOURCE/SINK TERM
FACE 6 OF (J,I,K) =  161,  40,   2 IS NOT A BOUNDARY FACE.    RIVER LEAKAGE FLOW TREATED AS SOURCE/SINK TERM
FACE 6 OF (J,I,K) =  161,  39,   2 IS NOT A BOUNDARY FACE.    RIVER LEAKAGE FLOW TREATED AS SOURCE/SINK TERM
FACE 6 OF (J,I,K) =  160,  39,   2 IS NOT A BOUNDARY FACE.    RIVER LEAKAGE FLOW TREATED AS SOURCE/SINK TERM
FACE 6 OF (J,I,K) =  160,  38,   2 IS NOT A BOUNDARY FACE.    RIVER LEAKAGE FLOW TREATED AS SOURCE/SINK TERM
FACE 6 OF (J,I,K) =  160,  37,   2 IS NOT A BOUNDARY FACE.    RIVER LEAKAGE FLOW TREATED AS SOURCE/SINK TERM
FACE 6 OF (J,I,K) =  159,  37,   2 IS NOT A BOUNDARY FACE.    RIVER LEAKAGE FLOW TREATED AS SOURCE/SINK TERM
FACE 6 OF (J,I,K) =  159,  36,   2 IS NOT A BOUNDARY FACE.    RIVER LEAKAGE FLOW TREATED AS SOURCE/SINK TERM
FACE 6 OF (J,I,K) =  159,  35,   2 IS NOT A BOUNDARY FACE.    RIVER LEAKAGE FLOW TREATED AS SOURCE/SINK TERM
FACE 6 OF (J,I,K) =  159,  34,   2 IS NOT A BOUNDARY FACE.    RIVER LEAKAGE FLOW TREATED AS SOURCE/SINK TERM
FACE 6 OF (J,I,K) =  158,  34,   2 IS NOT A BOUNDARY FACE.    RIVER LEAKAGE FLOW TREATED AS SOURCE/SINK TERM
FACE 6 OF (J,I,K) =  158,  33,   2 IS NOT A BOUNDARY FACE.    RIVER LEAKAGE FLOW TREATED AS SOURCE/SINK TERM
FACE 6 OF (J,I,K) =  158,  32,   2 IS NOT A BOUNDARY FACE.    RIVER LEAKAGE FLOW TREATED AS SOURCE/SINK TERM
FACE 6 OF (J,I,K) =  158,  31,   2 IS NOT A BOUNDARY FACE.    RIVER LEAKAGE FLOW TREATED AS SOURCE/SINK TERM
FACE 6 OF (J,I,K) =  157,  31,   2 IS NOT A BOUNDARY FACE.    RIVER LEAKAGE FLOW TREATED AS SOURCE/SINK TERM
FACE 6 OF (J,I,K) =  157,  30,   2 IS NOT A BOUNDARY FACE.    RIVER LEAKAGE FLOW TREATED AS SOURCE/SINK TERM
FACE 6 OF (J,I,K) =   87,  95,   2 IS NOT A BOUNDARY FACE.    RIVER LEAKAGE FLOW TREATED AS SOURCE/SINK TERM
FACE 6 OF (J,I,K) =   83,  86,   2 IS NOT A BOUNDARY FACE.    RIVER LEAKAGE FLOW TREATED AS SOURCE/SINK TERM
FACE 6 OF (J,I,K) =   83,  85,   2 IS NOT A BOUNDARY FACE.    RIVER LEAKAGE FLOW TREATED AS SOURCE/SINK TERM
FACE 6 OF (J,I,K) =   83,  84,   2 IS NOT A BOUNDARY FACE.    RIVER LEAKAGE FLOW TREATED AS SOURCE/SINK TERM
FACE 6 OF (J,I,K) =   82,  84,   2 IS NOT A BOUNDARY FACE.    RIVER LEAKAGE FLOW TREATED AS SOURCE/SINK TERM
FACE 6 OF (J,I,K) =   82,  83,   2 IS NOT A BOUNDARY FACE.    RIVER LEAKAGE FLOW TREATED AS SOURCE/SINK TERM
FACE 6 OF (J,I,K) =   82,  82,   2 IS NOT A BOUNDARY FACE.    RIVER LEAKAGE FLOW TREATED AS SOURCE/SINK TERM
FACE 6 OF (J,I,K) =   82,  81,   2 IS NOT A BOUNDARY FACE.    RIVER LEAKAGE FLOW TREATED AS SOURCE/SINK TERM
FACE 6 OF (J,I,K) =   81,  81,   2 IS NOT A BOUNDARY FACE.    RIVER LEAKAGE FLOW TREATED AS SOURCE/SINK TERM
FACE 6 OF (J,I,K) =   81,  80,   2 IS NOT A BOUNDARY FACE.    RIVER LEAKAGE FLOW TREATED AS SOURCE/SINK TERM
FACE 6 OF (J,I,K) =   81,  79,   2 IS NOT A BOUNDARY FACE.    RIVER LEAKAGE FLOW TREATED AS SOURCE/SINK TERM
FACE 6 OF (J,I,K) =   80,  79,   2 IS NOT A BOUNDARY FACE.    RIVER LEAKAGE FLOW TREATED AS SOURCE/SINK TERM
FACE 6 OF (J,I,K) =   80,  78,   2 IS NOT A BOUNDARY FACE.    RIVER LEAKAGE FLOW TREATED AS SOURCE/SINK TERM
FACE 6 OF (J,I,K) =   80,  77,   2 IS NOT A BOUNDARY FACE.    RIVER LEAKAGE FLOW TREATED AS SOURCE/SINK TERM
FACE 6 OF (J,I,K) =   80,  76,   2 IS NOT A BOUNDARY FACE.    RIVER LEAKAGE FLOW TREATED AS SOURCE/SINK TERM
FACE 6 OF (J,I,K) =   79,  76,   2 IS NOT A BOUNDARY FACE.    RIVER LEAKAGE FLOW TREATED AS SOURCE/SINK TERM
FACE 6 OF (J,I,K) =   79,  75,   2 IS NOT A BOUNDARY FACE.    RIVER LEAKAGE FLOW TREATED AS SOURCE/SINK TERM
FACE 6 OF (J,I,K) =   80,  75,   2 IS NOT A BOUNDARY FACE.    RIVER LEAKAGE FLOW TREATED AS SOURCE/SINK TERM
FACE 6 OF (J,I,K) =   80,  74,   2 IS NOT A BOUNDARY FACE.    RIVER LEAKAGE FLOW TREATED AS SOURCE/SINK TERM
FACE 6 OF (J,I,K) =   80,  73,   2 IS NOT A BOUNDARY FACE.    RIVER LEAKAGE FLOW TREATED AS SOURCE/SINK TERM
FACE 6 OF (J,I,K) =   80,  72,   2 IS NOT A BOUNDARY FACE.    RIVER LEAKAGE FLOW TREATED AS SOURCE/SINK TERM
FACE 6 OF (J,I,K) =   81,  72,   2 IS NOT A BOUNDARY FACE.    RIVER LEAKAGE FLOW TREATED AS SOURCE/SINK TERM
FACE 6 OF (J,I,K) =   81,  71,   2 IS NOT A BOUNDARY FACE.    RIVER LEAKAGE FLOW TREATED AS SOURCE/SINK TERM
FACE 6 OF (J,I,K) =   81,  70,   2 IS NOT A BOUNDARY FACE.    RIVER LEAKAGE FLOW TREATED AS SOURCE/SINK TERM
FACE 6 OF (J,I,K) =   82,  70,   2 IS NOT A BOUNDARY FACE.    RIVER LEAKAGE FLOW TREATED AS SOURCE/SINK TERM
FACE 6 OF (J,I,K) =   82,  69,   2 IS NOT A BOUNDARY FACE.    RIVER LEAKAGE FLOW TREATED AS SOURCE/SINK TERM
FACE 6 OF (J,I,K) =   82,  68,   2 IS NOT A BOUNDARY FACE.    RIVER LEAKAGE FLOW TREATED AS SOURCE/SINK TERM
FACE 6 OF (J,I,K) =   82,  67,   2 IS NOT A BOUNDARY FACE.    RIVER LEAKAGE FLOW TREATED AS SOURCE/SINK TERM
FACE 6 OF (J,I,K) =   83,  67,   2 IS NOT A BOUNDARY FACE.    RIVER LEAKAGE FLOW TREATED AS SOURCE/SINK TERM
FACE 6 OF (J,I,K) =   83,  66,   2 IS NOT A BOUNDARY FACE.    RIVER LEAKAGE FLOW TREATED AS SOURCE/SINK TERM
FACE 6 OF (J,I,K) =   83,  65,   2 IS NOT A BOUNDARY FACE.    RIVER LEAKAGE FLOW TREATED AS SOURCE/SINK TERM
FACE 6 OF (J,I,K) =   84,  65,   2 IS NOT A BOUNDARY FACE.    RIVER LEAKAGE FLOW TREATED AS SOURCE/SINK TERM
FACE 6 OF (J,I,K) =   84,  64,   2 IS NOT A BOUNDARY FACE.    RIVER LEAKAGE FLOW TREATED AS SOURCE/SINK TERM
FACE 6 OF (J,I,K) =  143, 113,   2 IS NOT A BOUNDARY FACE.    RIVER LEAKAGE FLOW TREATED AS SOURCE/SINK TERM
FACE 6 OF (J,I,K) =  143, 114,   2 IS NOT A BOUNDARY FACE.    RIVER LEAKAGE FLOW TREATED AS SOURCE/SINK TERM
FACE 6 OF (J,I,K) =  142, 114,   2 IS NOT A BOUNDARY FACE.    RIVER LEAKAGE FLOW TREATED AS SOURCE/SINK TERM
FACE 6 OF (J,I,K) =  142, 115,   2 IS NOT A BOUNDARY FACE.    RIVER LEAKAGE FLOW TREATED AS SOURCE/SINK TERM
FACE 6 OF (J,I,K) =  142, 116,   2 IS NOT A BOUNDARY FACE.    RIVER LEAKAGE FLOW TREATED AS SOURCE/SINK TERM
FACE 6 OF (J,I,K) =  142, 117,   2 IS NOT A BOUNDARY FACE.    RIVER LEAKAGE FLOW TREATED AS SOURCE/SINK TERM
FACE 6 OF (J,I,K) =  142, 118,   2 IS NOT A BOUNDARY FACE.    RIVER LEAKAGE FLOW TREATED AS SOURCE/SINK TERM
FACE 6 OF (J,I,K) =  141, 118,   2 IS NOT A BOUNDARY FACE.    RIVER LEAKAGE FLOW TREATED AS SOURCE/SINK TERM
FACE 6 OF (J,I,K) =  141, 119,   2 IS NOT A BOUNDARY FACE.    RIVER LEAKAGE FLOW TREATED AS SOURCE/SINK TERM
FACE 6 OF (J,I,K) =  141, 120,   2 IS NOT A BOUNDARY FACE.    RIVER LEAKAGE FLOW TREATED AS SOURCE/SINK TERM
FACE 6 OF (J,I,K) =  141, 121,   2 IS NOT A BOUNDARY FACE.    RIVER LEAKAGE FLOW TREATED AS SOURCE/SINK TERM
FACE 6 OF (J,I,K) =  140, 121,   2 IS NOT A BOUNDARY FACE.    RIVER LEAKAGE FLOW TREATED AS SOURCE/SINK TERM
FACE 6 OF (J,I,K) =  140, 122,   2 IS NOT A BOUNDARY FACE.    RIVER LEAKAGE FLOW TREATED AS SOURCE/SINK TERM
FACE 6 OF (J,I,K) =  140, 123,   2 IS NOT A BOUNDARY FACE.    RIVER LEAKAGE FLOW TREATED AS SOURCE/SINK TERM
FACE 6 OF (J,I,K) =  140, 124,   2 IS NOT A BOUNDARY FACE.    RIVER LEAKAGE FLOW TREATED AS SOURCE/SINK TERM
FACE 6 OF (J,I,K) =  140, 125,   2 IS NOT A BOUNDARY FACE.    RIVER LEAKAGE FLOW TREATED AS SOURCE/SINK TERM
FACE 6 OF (J,I,K) =  140, 126,   2 IS NOT A BOUNDARY FACE.    RIVER LEAKAGE FLOW TREATED AS SOURCE/SINK TERM
FACE 6 OF (J,I,K) =  140, 127,   2 IS NOT A BOUNDARY FACE.    RIVER LEAKAGE FLOW TREATED AS SOURCE/SINK TERM
FACE 6 OF (J,I,K) =  139, 127,   2 IS NOT A BOUNDARY FACE.    RIVER LEAKAGE FLOW TREATED AS SOURCE/SINK TERM
FACE 6 OF (J,I,K) =  139, 128,   2 IS NOT A BOUNDARY FACE.    RIVER LEAKAGE FLOW TREATED AS SOURCE/SINK TERM
FACE 6 OF (J,I,K) =  139, 129,   2 IS NOT A BOUNDARY FACE.    RIVER LEAKAGE FLOW TREATED AS SOURCE/SINK TERM
FACE 6 OF (J,I,K) =  139, 130,   2 IS NOT A BOUNDARY FACE.    RIVER LEAKAGE FLOW TREATED AS SOURCE/SINK TERM
FACE 6 OF (J,I,K) =  139, 131,   2 IS NOT A BOUNDARY FACE.    RIVER LEAKAGE FLOW TREATED AS SOURCE/SINK TERM
FACE 6 OF (J,I,K) =  139, 132,   2 IS NOT A BOUNDARY FACE.    RIVER LEAKAGE FLOW TREATED AS SOURCE/SINK TERM
FACE 6 OF (J,I,K) =  139, 133,   2 IS NOT A BOUNDARY FACE.    RIVER LEAKAGE FLOW TREATED AS SOURCE/SINK TERM
FACE 6 OF (J,I,K) =  139, 134,   2 IS NOT A BOUNDARY FACE.    RIVER LEAKAGE FLOW TREATED AS SOURCE/SINK TERM
FACE 6 OF (J,I,K) =  139, 135,   2 IS NOT A BOUNDARY FACE.    RIVER LEAKAGE FLOW TREATED AS SOURCE/SINK TERM
FACE 6 OF (J,I,K) =  138, 135,   2 IS NOT A BOUNDARY FACE.    RIVER LEAKAGE FLOW TREATED AS SOURCE/SINK TERM
FACE 6 OF (J,I,K) =  138, 136,   2 IS NOT A BOUNDARY FACE.    RIVER LEAKAGE FLOW TREATED AS SOURCE/SINK TERM
FACE 6 OF (J,I,K) =  138, 137,   2 IS NOT A BOUNDARY FACE.    RIVER LEAKAGE FLOW TREATED AS SOURCE/SINK TERM
FACE 6 OF (J,I,K) =  138, 138,   2 IS NOT A BOUNDARY FACE.    RIVER LEAKAGE FLOW TREATED AS SOURCE/SINK TERM
FACE 6 OF (J,I,K) =  110, 103,   2 IS NOT A BOUNDARY FACE.    RIVER LEAKAGE FLOW TREATED AS SOURCE/SINK TERM
FACE 6 OF (J,I,K) =  110, 104,   2 IS NOT A BOUNDARY FACE.    RIVER LEAKAGE FLOW TREATED AS SOURCE/SINK TERM
FACE 6 OF (J,I,K) =  110, 105,   2 IS NOT A BOUNDARY FACE.    RIVER LEAKAGE FLOW TREATED AS SOURCE/SINK TERM
FACE 6 OF (J,I,K) =  110, 106,   2 IS NOT A BOUNDARY FACE.    RIVER LEAKAGE FLOW TREATED AS SOURCE/SINK TERM
FACE 6 OF (J,I,K) =  110, 107,   2 IS NOT A BOUNDARY FACE.    RIVER LEAKAGE FLOW TREATED AS SOURCE/SINK TERM
FACE 6 OF (J,I,K) =  110, 108,   2 IS NOT A BOUNDARY FACE.    RIVER LEAKAGE FLOW TREATED AS SOURCE/SINK TERM
FACE 6 OF (J,I,K) =  110, 109,   2 IS NOT A BOUNDARY FACE.    RIVER LEAKAGE FLOW TREATED AS SOURCE/SINK TERM
FACE 6 OF (J,I,K) =  110, 110,   2 IS NOT A BOUNDARY FACE.    RIVER LEAKAGE FLOW TREATED AS SOURCE/SINK TERM
FACE 6 OF (J,I,K) =  110, 111,   2 IS NOT A BOUNDARY FACE.    RIVER LEAKAGE FLOW TREATED AS SOURCE/SINK TERM
FACE 6 OF (J,I,K) =  110, 112,   2 IS NOT A BOUNDARY FACE.    RIVER LEAKAGE FLOW TREATED AS SOURCE/SINK TERM
FACE 6 OF (J,I,K) =  110, 113,   2 IS NOT A BOUNDARY FACE.    RIVER LEAKAGE FLOW TREATED AS SOURCE/SINK TERM
FACE 6 OF (J,I,K) =  110, 114,   2 IS NOT A BOUNDARY FACE.    RIVER LEAKAGE FLOW TREATED AS SOURCE/SINK TERM
FACE 6 OF (J,I,K) =  110, 115,   2 IS NOT A BOUNDARY FACE.    RIVER LEAKAGE FLOW TREATED AS SOURCE/SINK TERM
FACE 6 OF (J,I,K) =  110, 116,   2 IS NOT A BOUNDARY FACE.    RIVER LEAKAGE FLOW TREATED AS SOURCE/SINK TERM
FACE 6 OF (J,I,K) =  110, 117,   2 IS NOT A BOUNDARY FACE.    RIVER LEAKAGE FLOW TREATED AS SOURCE/SINK TERM
FACE 6 OF (J,I,K) =  110, 118,   2 IS NOT A BOUNDARY FACE.    RIVER LEAKAGE FLOW TREATED AS SOURCE/SINK TERM
FACE 6 OF (J,I,K) =  110, 119,   2 IS NOT A BOUNDARY FACE.    RIVER LEAKAGE FLOW TREATED AS SOURCE/SINK TERM
FACE 6 OF (J,I,K) =  110, 120,   2 IS NOT A BOUNDARY FACE.    RIVER LEAKAGE FLOW TREATED AS SOURCE/SINK TERM
FACE 6 OF (J,I,K) =  110, 121,   2 IS NOT A BOUNDARY FACE.    RIVER LEAKAGE FLOW TREATED AS SOURCE/SINK TERM
FACE 6 OF (J,I,K) =  111, 121,   2 IS NOT A BOUNDARY FACE.    RIVER LEAKAGE FLOW TREATED AS SOURCE/SINK TERM
FACE 6 OF (J,I,K) =  111, 122,   2 IS NOT A BOUNDARY FACE.    RIVER LEAKAGE FLOW TREATED AS SOURCE/SINK TERM
FACE 6 OF (J,I,K) =  111, 123,   2 IS NOT A BOUNDARY FACE.    RIVER LEAKAGE FLOW TREATED AS SOURCE/SINK TERM
FACE 6 OF (J,I,K) =  111, 124,   2 IS NOT A BOUNDARY FACE.    RIVER LEAKAGE FLOW TREATED AS SOURCE/SINK TERM
FACE 6 OF (J,I,K) =  111, 125,   2 IS NOT A BOUNDARY FACE.    RIVER LEAKAGE FLOW TREATED AS SOURCE/SINK TERM
FACE 6 OF (J,I,K) =  111, 126,   2 IS NOT A BOUNDARY FACE.    RIVER LEAKAGE FLOW TREATED AS SOURCE/SINK TERM
FACE 6 OF (J,I,K) =  111, 127,   2 IS NOT A BOUNDARY FACE.    RIVER LEAKAGE FLOW TREATED AS SOURCE/SINK TERM
FACE 6 OF (J,I,K) =  111, 128,   2 IS NOT A BOUNDARY FACE.    RIVER LEAKAGE FLOW TREATED AS SOURCE/SINK TERM
FACE 6 OF (J,I,K) =  111, 129,   2 IS NOT A BOUNDARY FACE.    RIVER LEAKAGE FLOW TREATED AS SOURCE/SINK TERM
FACE 6 OF (J,I,K) =  111, 130,   2 IS NOT A BOUNDARY FACE.    RIVER LEAKAGE FLOW TREATED AS SOURCE/SINK TERM
FACE 6 OF (J,I,K) =  111, 131,   2 IS NOT A BOUNDARY FACE.    RIVER LEAKAGE FLOW TREATED AS SOURCE/SINK TERM
FACE 6 OF (J,I,K) =  111, 132,   2 IS NOT A BOUNDARY FACE.    RIVER LEAKAGE FLOW TREATED AS SOURCE/SINK TERM
FACE 6 OF (J,I,K) =  111, 133,   2 IS NOT A BOUNDARY FACE.    RIVER LEAKAGE FLOW TREATED AS SOURCE/SINK TERM
FACE 6 OF (J,I,K) =  111, 134,   2 IS NOT A BOUNDARY FACE.    RIVER LEAKAGE FLOW TREATED AS SOURCE/SINK TERM
FACE 6 OF (J,I,K) =  111, 135,   2 IS NOT A BOUNDARY FACE.    RIVER LEAKAGE FLOW TREATED AS SOURCE/SINK TERM
FACE 6 OF (J,I,K) =   91, 118,   2 IS NOT A BOUNDARY FACE.    RIVER LEAKAGE FLOW TREATED AS SOURCE/SINK TERM
FACE 6 OF (J,I,K) =   91, 119,   2 IS NOT A BOUNDARY FACE.    RIVER LEAKAGE FLOW TREATED AS SOURCE/SINK TERM
FACE 6 OF (J,I,K) =   91, 120,   2 IS NOT A BOUNDARY FACE.    RIVER LEAKAGE FLOW TREATED AS SOURCE/SINK TERM
FACE 6 OF (J,I,K) =   91, 121,   2 IS NOT A BOUNDARY FACE.    RIVER LEAKAGE FLOW TREATED AS SOURCE/SINK TERM
FACE 6 OF (J,I,K) =   92, 121,   2 IS NOT A BOUNDARY FACE.    RIVER LEAKAGE FLOW TREATED AS SOURCE/SINK TERM
FACE 6 OF (J,I,K) =   92, 122,   2 IS NOT A BOUNDARY FACE.    RIVER LEAKAGE FLOW TREATED AS SOURCE/SINK TERM
FACE 6 OF (J,I,K) =   92, 123,   2 IS NOT A BOUNDARY FACE.    RIVER LEAKAGE FLOW TREATED AS SOURCE/SINK TERM
FACE 6 OF (J,I,K) =   92, 124,   2 IS NOT A BOUNDARY FACE.    RIVER LEAKAGE FLOW TREATED AS SOURCE/SINK TERM
FACE 6 OF (J,I,K) =   93, 124,   2 IS NOT A BOUNDARY FACE.    RIVER LEAKAGE FLOW TREATED AS SOURCE/SINK TERM
FACE 6 OF (J,I,K) =   93, 125,   2 IS NOT A BOUNDARY FACE.    RIVER LEAKAGE FLOW TREATED AS SOURCE/SINK TERM
FACE 6 OF (J,I,K) =   93, 126,   2 IS NOT A BOUNDARY FACE.    RIVER LEAKAGE FLOW TREATED AS SOURCE/SINK TERM
FACE 6 OF (J,I,K) =   93, 127,   2 IS NOT A BOUNDARY FACE.    RIVER LEAKAGE FLOW TREATED AS SOURCE/SINK TERM
FACE 6 OF (J,I,K) =   93, 128,   2 IS NOT A BOUNDARY FACE.    RIVER LEAKAGE FLOW TREATED AS SOURCE/SINK TERM
FACE 6 OF (J,I,K) =   94, 128,   2 IS NOT A BOUNDARY FACE.    RIVER LEAKAGE FLOW TREATED AS SOURCE/SINK TERM
FACE 6 OF (J,I,K) =   94, 129,   2 IS NOT A BOUNDARY FACE.    RIVER LEAKAGE FLOW TREATED AS SOURCE/SINK TERM
FACE 6 OF (J,I,K) =   94, 130,   2 IS NOT A BOUNDARY FACE.    RIVER LEAKAGE FLOW TREATED AS SOURCE/SINK TERM
FACE 6 OF (J,I,K) =   94, 131,   2 IS NOT A BOUNDARY FACE.    RIVER LEAKAGE FLOW TREATED AS SOURCE/SINK TERM
FACE 6 OF (J,I,K) =   95, 131,   2 IS NOT A BOUNDARY FACE.    RIVER LEAKAGE FLOW TREATED AS SOURCE/SINK TERM
FACE 6 OF (J,I,K) =   95, 132,   2 IS NOT A BOUNDARY FACE.    RIVER LEAKAGE FLOW TREATED AS SOURCE/SINK TERM
FACE 6 OF (J,I,K) =   95, 133,   2 IS NOT A BOUNDARY FACE.    RIVER LEAKAGE FLOW TREATED AS SOURCE/SINK TERM
FACE 6 OF (J,I,K) =   95, 134,   2 IS NOT A BOUNDARY FACE.    RIVER LEAKAGE FLOW TREATED AS SOURCE/SINK TERM
FACE 6 OF (J,I,K) =   95, 135,   2 IS NOT A BOUNDARY FACE.    RIVER LEAKAGE FLOW TREATED AS SOURCE/SINK TERM
FACE 6 OF (J,I,K) =   95, 136,   2 IS NOT A BOUNDARY FACE.    RIVER LEAKAGE FLOW TREATED AS SOURCE/SINK TERM
FACE 6 OF (J,I,K) =   95, 137,   2 IS NOT A BOUNDARY FACE.    RIVER LEAKAGE FLOW TREATED AS SOURCE/SINK TERM
FACE 6 OF (J,I,K) =   94, 137,   2 IS NOT A BOUNDARY FACE.    RIVER LEAKAGE FLOW TREATED AS SOURCE/SINK TERM
FACE 6 OF (J,I,K) =   94, 138,   2 IS NOT A BOUNDARY FACE.    RIVER LEAKAGE FLOW TREATED AS SOURCE/SINK TERM
FACE 6 OF (J,I,K) =   94, 139,   2 IS NOT A BOUNDARY FACE.    RIVER LEAKAGE FLOW TREATED AS SOURCE/SINK TERM
FACE 6 OF (J,I,K) =   94, 140,   2 IS NOT A BOUNDARY FACE.    RIVER LEAKAGE FLOW TREATED AS SOURCE/SINK TERM
FACE 6 OF (J,I,K) =   94, 141,   2 IS NOT A BOUNDARY FACE.    RIVER LEAKAGE FLOW TREATED AS SOURCE/SINK TERM
FACE 6 OF (J,I,K) =   94, 142,   2 IS NOT A BOUNDARY FACE.    RIVER LEAKAGE FLOW TREATED AS SOURCE/SINK TERM
FACE 6 OF (J,I,K) =   94, 143,   2 IS NOT A BOUNDARY FACE.    RIVER LEAKAGE FLOW TREATED AS SOURCE/SINK TERM
FACE 6 OF (J,I,K) =   94, 144,   2 IS NOT A BOUNDARY FACE.    RIVER LEAKAGE FLOW TREATED AS SOURCE/SINK TERM
FACE 6 OF (J,I,K) =   94, 145,   2 IS NOT A BOUNDARY FACE.    RIVER LEAKAGE FLOW TREATED AS SOURCE/SINK TERM
FACE 6 OF (J,I,K) =   67, 118,   2 IS NOT A BOUNDARY FACE.    RIVER LEAKAGE FLOW TREATED AS SOURCE/SINK TERM
FACE 6 OF (J,I,K) =   67, 119,   2 IS NOT A BOUNDARY FACE.    RIVER LEAKAGE FLOW TREATED AS SOURCE/SINK TERM
FACE 6 OF (J,I,K) =   67, 120,   2 IS NOT A BOUNDARY FACE.    RIVER LEAKAGE FLOW TREATED AS SOURCE/SINK TERM
FACE 6 OF (J,I,K) =   67, 121,   2 IS NOT A BOUNDARY FACE.    RIVER LEAKAGE FLOW TREATED AS SOURCE/SINK TERM
FACE 6 OF (J,I,K) =   67, 122,   2 IS NOT A BOUNDARY FACE.    RIVER LEAKAGE FLOW TREATED AS SOURCE/SINK TERM
FACE 6 OF (J,I,K) =   67, 123,   2 IS NOT A BOUNDARY FACE.    RIVER LEAKAGE FLOW TREATED AS SOURCE/SINK TERM
FACE 6 OF (J,I,K) =   67, 124,   2 IS NOT A BOUNDARY FACE.    RIVER LEAKAGE FLOW TREATED AS SOURCE/SINK TERM
FACE 6 OF (J,I,K) =   67, 125,   2 IS NOT A BOUNDARY FACE.    RIVER LEAKAGE FLOW TREATED AS SOURCE/SINK TERM
FACE 6 OF (J,I,K) =   67, 126,   2 IS NOT A BOUNDARY FACE.    RIVER LEAKAGE FLOW TREATED AS SOURCE/SINK TERM
FACE 6 OF (J,I,K) =   67, 127,   2 IS NOT A BOUNDARY FACE.    RIVER LEAKAGE FLOW TREATED AS SOURCE/SINK TERM
FACE 6 OF (J,I,K) =   66, 127,   2 IS NOT A BOUNDARY FACE.    RIVER LEAKAGE FLOW TREATED AS SOURCE/SINK TERM
FACE 6 OF (J,I,K) =   66, 128,   2 IS NOT A BOUNDARY FACE.    RIVER LEAKAGE FLOW TREATED AS SOURCE/SINK TERM
FACE 6 OF (J,I,K) =   66, 129,   2 IS NOT A BOUNDARY FACE.    RIVER LEAKAGE FLOW TREATED AS SOURCE/SINK TERM
FACE 6 OF (J,I,K) =   66, 130,   2 IS NOT A BOUNDARY FACE.    RIVER LEAKAGE FLOW TREATED AS SOURCE/SINK TERM
FACE 6 OF (J,I,K) =   66, 131,   2 IS NOT A BOUNDARY FACE.    RIVER LEAKAGE FLOW TREATED AS SOURCE/SINK TERM
FACE 6 OF (J,I,K) =   66, 132,   2 IS NOT A BOUNDARY FACE.    RIVER LEAKAGE FLOW TREATED AS SOURCE/SINK TERM
FACE 6 OF (J,I,K) =   66, 133,   2 IS NOT A BOUNDARY FACE.    RIVER LEAKAGE FLOW TREATED AS SOURCE/SINK TERM
FACE 6 OF (J,I,K) =   66, 134,   2 IS NOT A BOUNDARY FACE.    RIVER LEAKAGE FLOW TREATED AS SOURCE/SINK TERM
FACE 6 OF (J,I,K) =   66, 135,   2 IS NOT A BOUNDARY FACE.    RIVER LEAKAGE FLOW TREATED AS SOURCE/SINK TERM
FACE 6 OF (J,I,K) =   66, 136,   2 IS NOT A BOUNDARY FACE.    RIVER LEAKAGE FLOW TREATED AS SOURCE/SINK TERM
FACE 6 OF (J,I,K) =   66, 137,   2 IS NOT A BOUNDARY FACE.    RIVER LEAKAGE FLOW TREATED AS SOURCE/SINK TERM
FACE 6 OF (J,I,K) =   66, 138,   2 IS NOT A BOUNDARY FACE.    RIVER LEAKAGE FLOW TREATED AS SOURCE/SINK TERM
FACE 6 OF (J,I,K) =   66, 139,   2 IS NOT A BOUNDARY FACE.    RIVER LEAKAGE FLOW TREATED AS SOURCE/SINK TERM
FACE 6 OF (J,I,K) =   65, 139,   2 IS NOT A BOUNDARY FACE.    RIVER LEAKAGE FLOW TREATED AS SOURCE/SINK TERM
FACE 6 OF (J,I,K) =   65, 140,   2 IS NOT A BOUNDARY FACE.    RIVER LEAKAGE FLOW TREATED AS SOURCE/SINK TERM
FACE 6 OF (J,I,K) =   65, 141,   2 IS NOT A BOUNDARY FACE.    RIVER LEAKAGE FLOW TREATED AS SOURCE/SINK TERM
FACE 6 OF (J,I,K) =   65, 142,   2 IS NOT A BOUNDARY FACE.    RIVER LEAKAGE FLOW TREATED AS SOURCE/SINK TERM
FACE 6 OF (J,I,K) =   65, 143,   2 IS NOT A BOUNDARY FACE.    RIVER LEAKAGE FLOW TREATED AS SOURCE/SINK TERM
FACE 6 OF (J,I,K) =   65, 144,   2 IS NOT A BOUNDARY FACE.    RIVER LEAKAGE FLOW TREATED AS SOURCE/SINK TERM
FACE 6 OF (J,I,K) =   65, 145,   2 IS NOT A BOUNDARY FACE.    RIVER LEAKAGE FLOW TREATED AS SOURCE/SINK TERM
FACE 6 OF (J,I,K) =   65, 146,   2 IS NOT A BOUNDARY FACE.    RIVER LEAKAGE FLOW TREATED AS SOURCE/SINK TERM
FACE 6 OF (J,I,K) =   65, 147,   2 IS NOT A BOUNDARY FACE.    RIVER LEAKAGE FLOW TREATED AS SOURCE/SINK TERM
FACE 6 OF (J,I,K) =   65, 148,   2 IS NOT A BOUNDARY FACE.    RIVER LEAKAGE FLOW TREATED AS SOURCE/SINK TERM
FACE 6 OF (J,I,K) =   65, 149,   2 IS NOT A BOUNDARY FACE.    RIVER LEAKAGE FLOW TREATED AS SOURCE/SINK TERM
FACE 6 OF (J,I,K) =   65, 150,   2 IS NOT A BOUNDARY FACE.    RIVER LEAKAGE FLOW TREATED AS SOURCE/SINK TERM
FACE 6 OF (J,I,K) =  128, 109,   2 IS NOT A BOUNDARY FACE.    RIVER LEAKAGE FLOW TREATED AS SOURCE/SINK TERM
FACE 6 OF (J,I,K) =  128, 110,   2 IS NOT A BOUNDARY FACE.    RIVER LEAKAGE FLOW TREATED AS SOURCE/SINK TERM
FACE 6 OF (J,I,K) =  127, 110,   2 IS NOT A BOUNDARY FACE.    RIVER LEAKAGE FLOW TREATED AS SOURCE/SINK TERM
FACE 6 OF (J,I,K) =  127, 111,   2 IS NOT A BOUNDARY FACE.    RIVER LEAKAGE FLOW TREATED AS SOURCE/SINK TERM
FACE 6 OF (J,I,K) =  127, 112,   2 IS NOT A BOUNDARY FACE.    RIVER LEAKAGE FLOW TREATED AS SOURCE/SINK TERM
FACE 6 OF (J,I,K) =  127, 113,   2 IS NOT A BOUNDARY FACE.    RIVER LEAKAGE FLOW TREATED AS SOURCE/SINK TERM
FACE 6 OF (J,I,K) =  127, 114,   2 IS NOT A BOUNDARY FACE.    RIVER LEAKAGE FLOW TREATED AS SOURCE/SINK TERM
FACE 6 OF (J,I,K) =  127, 115,   2 IS NOT A BOUNDARY FACE.    RIVER LEAKAGE FLOW TREATED AS SOURCE/SINK TERM
FACE 6 OF (J,I,K) =  126, 115,   2 IS NOT A BOUNDARY FACE.    RIVER LEAKAGE FLOW TREATED AS SOURCE/SINK TERM
FACE 6 OF (J,I,K) =  126, 116,   2 IS NOT A BOUNDARY FACE.    RIVER LEAKAGE FLOW TREATED AS SOURCE/SINK TERM
FACE 6 OF (J,I,K) =  126, 117,   2 IS NOT A BOUNDARY FACE.    RIVER LEAKAGE FLOW TREATED AS SOURCE/SINK TERM
FACE 6 OF (J,I,K) =  126, 118,   2 IS NOT A BOUNDARY FACE.    RIVER LEAKAGE FLOW TREATED AS SOURCE/SINK TERM
FACE 6 OF (J,I,K) =  126, 119,   2 IS NOT A BOUNDARY FACE.    RIVER LEAKAGE FLOW TREATED AS SOURCE/SINK TERM
FACE 6 OF (J,I,K) =  126, 120,   2 IS NOT A BOUNDARY FACE.    RIVER LEAKAGE FLOW TREATED AS SOURCE/SINK TERM
FACE 6 OF (J,I,K) =  126, 121,   2 IS NOT A BOUNDARY FACE.    RIVER LEAKAGE FLOW TREATED AS SOURCE/SINK TERM
FACE 6 OF (J,I,K) =  126, 122,   2 IS NOT A BOUNDARY FACE.    RIVER LEAKAGE FLOW TREATED AS SOURCE/SINK TERM
FACE 6 OF (J,I,K) =  126, 123,   2 IS NOT A BOUNDARY FACE.    RIVER LEAKAGE FLOW TREATED AS SOURCE/SINK TERM
FACE 6 OF (J,I,K) =  126, 124,   2 IS NOT A BOUNDARY FACE.    RIVER LEAKAGE FLOW TREATED AS SOURCE/SINK TERM
FACE 6 OF (J,I,K) =  126, 125,   2 IS NOT A BOUNDARY FACE.    RIVER LEAKAGE FLOW TREATED AS SOURCE/SINK TERM
FACE 6 OF (J,I,K) =  126, 126,   2 IS NOT A BOUNDARY FACE.    RIVER LEAKAGE FLOW TREATED AS SOURCE/SINK TERM
FACE 6 OF (J,I,K) =  127, 126,   2 IS NOT A BOUNDARY FACE.    RIVER LEAKAGE FLOW TREATED AS SOURCE/SINK TERM
FACE 6 OF (J,I,K) =  127, 127,   2 IS NOT A BOUNDARY FACE.    RIVER LEAKAGE FLOW TREATED AS SOURCE/SINK TERM
FACE 6 OF (J,I,K) =  127, 128,   2 IS NOT A BOUNDARY FACE.    RIVER LEAKAGE FLOW TREATED AS SOURCE/SINK TERM
FACE 6 OF (J,I,K) =  127, 129,   2 IS NOT A BOUNDARY FACE.    RIVER LEAKAGE FLOW TREATED AS SOURCE/SINK TERM
FACE 6 OF (J,I,K) =  127, 130,   2 IS NOT A BOUNDARY FACE.    RIVER LEAKAGE FLOW TREATED AS SOURCE/SINK TERM
FACE 6 OF (J,I,K) =  127, 131,   2 IS NOT A BOUNDARY FACE.    RIVER LEAKAGE FLOW TREATED AS SOURCE/SINK TERM
FACE 6 OF (J,I,K) =  127, 132,   2 IS NOT A BOUNDARY FACE.    RIVER LEAKAGE FLOW TREATED AS SOURCE/SINK TERM
FACE 6 OF (J,I,K) =  127, 133,   2 IS NOT A BOUNDARY FACE.    RIVER LEAKAGE FLOW TREATED AS SOURCE/SINK TERM
FACE 6 OF (J,I,K) =  148,  44,   2 IS NOT A BOUNDARY FACE.    RIVER LEAKAGE FLOW TREATED AS SOURCE/SINK TERM
FACE 6 OF (J,I,K) =  149,  37,   2 IS NOT A BOUNDARY FACE.    RIVER LEAKAGE FLOW TREATED AS SOURCE/SINK TERM
FACE 6 OF (J,I,K) =  149,  36,   2 IS NOT A BOUNDARY FACE.    RIVER LEAKAGE FLOW TREATED AS SOURCE/SINK TERM
FACE 6 OF (J,I,K) =  149,  35,   2 IS NOT A BOUNDARY FACE.    RIVER LEAKAGE FLOW TREATED AS SOURCE/SINK TERM
FACE 6 OF (J,I,K) =  149,  34,   2 IS NOT A BOUNDARY FACE.    RIVER LEAKAGE FLOW TREATED AS SOURCE/SINK TERM
FACE 6 OF (J,I,K) =  149,  33,   2 IS NOT A BOUNDARY FACE.    RIVER LEAKAGE FLOW TREATED AS SOURCE/SINK TERM
FACE 6 OF (J,I,K) =  149,  30,   2 IS NOT A BOUNDARY FACE.    RIVER LEAKAGE FLOW TREATED AS SOURCE/SINK TERM
FACE 6 OF (J,I,K) =  149,  29,   2 IS NOT A BOUNDARY FACE.    RIVER LEAKAGE FLOW TREATED AS SOURCE/SINK TERM
FACE 6 OF (J,I,K) =  149,  27,   2 IS NOT A BOUNDARY FACE.    RIVER LEAKAGE FLOW TREATED AS SOURCE/SINK TERM
FACE 6 OF (J,I,K) =  148,  27,   2 IS NOT A BOUNDARY FACE.    RIVER LEAKAGE FLOW TREATED AS SOURCE/SINK TERM
FACE 6 OF (J,I,K) =  148,  26,   2 IS NOT A BOUNDARY FACE.    RIVER LEAKAGE FLOW TREATED AS SOURCE/SINK TERM
FACE 6 OF (J,I,K) =  148,  25,   2 IS NOT A BOUNDARY FACE.    RIVER LEAKAGE FLOW TREATED AS SOURCE/SINK TERM
FACE 6 OF (J,I,K) =  148,  24,   2 IS NOT A BOUNDARY FACE.    RIVER LEAKAGE FLOW TREATED AS SOURCE/SINK TERM
FACE 6 OF (J,I,K) =  148,  23,   2 IS NOT A BOUNDARY FACE.    RIVER LEAKAGE FLOW TREATED AS SOURCE/SINK TERM
FACE 6 OF (J,I,K) =  148,  22,   2 IS NOT A BOUNDARY FACE.    RIVER LEAKAGE FLOW TREATED AS SOURCE/SINK TERM
FACE 6 OF (J,I,K) =  148,  21,   2 IS NOT A BOUNDARY FACE.    RIVER LEAKAGE FLOW TREATED AS SOURCE/SINK TERM
FACE 6 OF (J,I,K) =  148,  20,   2 IS NOT A BOUNDARY FACE.    RIVER LEAKAGE FLOW TREATED AS SOURCE/SINK TERM
FACE 6 OF (J,I,K) =  148,  19,   2 IS NOT A BOUNDARY FACE.    RIVER LEAKAGE FLOW TREATED AS SOURCE/SINK TERM
FACE 6 OF (J,I,K) =  148,  18,   2 IS NOT A BOUNDARY FACE.    RIVER LEAKAGE FLOW TREATED AS SOURCE/SINK TERM
FACE 6 OF (J,I,K) =  144,  33,   2 IS NOT A BOUNDARY FACE.    RIVER LEAKAGE FLOW TREATED AS SOURCE/SINK TERM
FACE 6 OF (J,I,K) =  144,  32,   2 IS NOT A BOUNDARY FACE.    RIVER LEAKAGE FLOW TREATED AS SOURCE/SINK TERM
FACE 6 OF (J,I,K) =  143,  32,   2 IS NOT A BOUNDARY FACE.    RIVER LEAKAGE FLOW TREATED AS SOURCE/SINK TERM
FACE 6 OF (J,I,K) =  143,  31,   2 IS NOT A BOUNDARY FACE.    RIVER LEAKAGE FLOW TREATED AS SOURCE/SINK TERM
FACE 6 OF (J,I,K) =  143,  30,   2 IS NOT A BOUNDARY FACE.    RIVER LEAKAGE FLOW TREATED AS SOURCE/SINK TERM
FACE 6 OF (J,I,K) =  142,  30,   2 IS NOT A BOUNDARY FACE.    RIVER LEAKAGE FLOW TREATED AS SOURCE/SINK TERM
FACE 6 OF (J,I,K) =  142,  29,   2 IS NOT A BOUNDARY FACE.    RIVER LEAKAGE FLOW TREATED AS SOURCE/SINK TERM
FACE 6 OF (J,I,K) =  142,  28,   2 IS NOT A BOUNDARY FACE.    RIVER LEAKAGE FLOW TREATED AS SOURCE/SINK TERM
FACE 6 OF (J,I,K) =  142,  27,   2 IS NOT A BOUNDARY FACE.    RIVER LEAKAGE FLOW TREATED AS SOURCE/SINK TERM
FACE 6 OF (J,I,K) =  143,  27,   2 IS NOT A BOUNDARY FACE.    RIVER LEAKAGE FLOW TREATED AS SOURCE/SINK TERM
FACE 6 OF (J,I,K) =  143,  26,   2 IS NOT A BOUNDARY FACE.    RIVER LEAKAGE FLOW TREATED AS SOURCE/SINK TERM
FACE 6 OF (J,I,K) =  144,  26,   2 IS NOT A BOUNDARY FACE.    RIVER LEAKAGE FLOW TREATED AS SOURCE/SINK TERM
FACE 6 OF (J,I,K) =  144,  25,   2 IS NOT A BOUNDARY FACE.    RIVER LEAKAGE FLOW TREATED AS SOURCE/SINK TERM
FACE 6 OF (J,I,K) =  145,  25,   2 IS NOT A BOUNDARY FACE.    RIVER LEAKAGE FLOW TREATED AS SOURCE/SINK TERM
FACE 6 OF (J,I,K) =  145,  24,   2 IS NOT A BOUNDARY FACE.    RIVER LEAKAGE FLOW TREATED AS SOURCE/SINK TERM
FACE 6 OF (J,I,K) =  135,  40,   2 IS NOT A BOUNDARY FACE.    RIVER LEAKAGE FLOW TREATED AS SOURCE/SINK TERM
FACE 6 OF (J,I,K) =  135,  39,   2 IS NOT A BOUNDARY FACE.    RIVER LEAKAGE FLOW TREATED AS SOURCE/SINK TERM
FACE 6 OF (J,I,K) =  135,  38,   2 IS NOT A BOUNDARY FACE.    RIVER LEAKAGE FLOW TREATED AS SOURCE/SINK TERM
FACE 6 OF (J,I,K) =  135,  37,   2 IS NOT A BOUNDARY FACE.    RIVER LEAKAGE FLOW TREATED AS SOURCE/SINK TERM
FACE 6 OF (J,I,K) =  134,  37,   2 IS NOT A BOUNDARY FACE.    RIVER LEAKAGE FLOW TREATED AS SOURCE/SINK TERM
FACE 6 OF (J,I,K) =  134,  36,   2 IS NOT A BOUNDARY FACE.    RIVER LEAKAGE FLOW TREATED AS SOURCE/SINK TERM
FACE 6 OF (J,I,K) =  134,  35,   2 IS NOT A BOUNDARY FACE.    RIVER LEAKAGE FLOW TREATED AS SOURCE/SINK TERM
FACE 6 OF (J,I,K) =  133,  35,   2 IS NOT A BOUNDARY FACE.    RIVER LEAKAGE FLOW TREATED AS SOURCE/SINK TERM
FACE 6 OF (J,I,K) =  133,  34,   2 IS NOT A BOUNDARY FACE.    RIVER LEAKAGE FLOW TREATED AS SOURCE/SINK TERM
FACE 6 OF (J,I,K) =  132,  34,   2 IS NOT A BOUNDARY FACE.    RIVER LEAKAGE FLOW TREATED AS SOURCE/SINK TERM
FACE 6 OF (J,I,K) =  132,  33,   2 IS NOT A BOUNDARY FACE.    RIVER LEAKAGE FLOW TREATED AS SOURCE/SINK TERM
FACE 6 OF (J,I,K) =  131,  33,   2 IS NOT A BOUNDARY FACE.    RIVER LEAKAGE FLOW TREATED AS SOURCE/SINK TERM
FACE 6 OF (J,I,K) =  131,  32,   2 IS NOT A BOUNDARY FACE.    RIVER LEAKAGE FLOW TREATED AS SOURCE/SINK TERM
FACE 6 OF (J,I,K) =  131,  31,   2 IS NOT A BOUNDARY FACE.    RIVER LEAKAGE FLOW TREATED AS SOURCE/SINK TERM
FACE 6 OF (J,I,K) =  130,  31,   2 IS NOT A BOUNDARY FACE.    RIVER LEAKAGE FLOW TREATED AS SOURCE/SINK TERM
FACE 6 OF (J,I,K) =  130,  30,   2 IS NOT A BOUNDARY FACE.    RIVER LEAKAGE FLOW TREATED AS SOURCE/SINK TERM
FACE 6 OF (J,I,K) =  129,  30,   2 IS NOT A BOUNDARY FACE.    RIVER LEAKAGE FLOW TREATED AS SOURCE/SINK TERM
FACE 6 OF (J,I,K) =  129,  29,   2 IS NOT A BOUNDARY FACE.    RIVER LEAKAGE FLOW TREATED AS SOURCE/SINK TERM
FACE 6 OF (J,I,K) =  128,  29,   2 IS NOT A BOUNDARY FACE.    RIVER LEAKAGE FLOW TREATED AS SOURCE/SINK TERM
FACE 6 OF (J,I,K) =  128,  28,   2 IS NOT A BOUNDARY FACE.    RIVER LEAKAGE FLOW TREATED AS SOURCE/SINK TERM
FACE 6 OF (J,I,K) =  127,  28,   2 IS NOT A BOUNDARY FACE.    RIVER LEAKAGE FLOW TREATED AS SOURCE/SINK TERM
FACE 6 OF (J,I,K) =  127,  27,   2 IS NOT A BOUNDARY FACE.    RIVER LEAKAGE FLOW TREATED AS SOURCE/SINK TERM
FACE 6 OF (J,I,K) =  127,  26,   2 IS NOT A BOUNDARY FACE.    RIVER LEAKAGE FLOW TREATED AS SOURCE/SINK TERM
FACE 6 OF (J,I,K) =  126,  26,   2 IS NOT A BOUNDARY FACE.    RIVER LEAKAGE FLOW TREATED AS SOURCE/SINK TERM
FACE 6 OF (J,I,K) =  126,  25,   2 IS NOT A BOUNDARY FACE.    RIVER LEAKAGE FLOW TREATED AS SOURCE/SINK TERM
FACE 6 OF (J,I,K) =  125,  25,   2 IS NOT A BOUNDARY FACE.    RIVER LEAKAGE FLOW TREATED AS SOURCE/SINK TERM
FACE 6 OF (J,I,K) =  125,  24,   2 IS NOT A BOUNDARY FACE.    RIVER LEAKAGE FLOW TREATED AS SOURCE/SINK TERM
FACE 6 OF (J,I,K) =  124,  24,   2 IS NOT A BOUNDARY FACE.    RIVER LEAKAGE FLOW TREATED AS SOURCE/SINK TERM
FACE 6 OF (J,I,K) =  124,  23,   2 IS NOT A BOUNDARY FACE.    RIVER LEAKAGE FLOW TREATED AS SOURCE/SINK TERM
FACE 6 OF (J,I,K) =  124,  22,   2 IS NOT A BOUNDARY FACE.    RIVER LEAKAGE FLOW TREATED AS SOURCE/SINK TERM
FACE 6 OF (J,I,K) =  123,  22,   2 IS NOT A BOUNDARY FACE.    RIVER LEAKAGE FLOW TREATED AS SOURCE/SINK TERM
FACE 6 OF (J,I,K) =  123,  21,   2 IS NOT A BOUNDARY FACE.    RIVER LEAKAGE FLOW TREATED AS SOURCE/SINK TERM
FACE 6 OF (J,I,K) =  122,  21,   2 IS NOT A BOUNDARY FACE.    RIVER LEAKAGE FLOW TREATED AS SOURCE/SINK TERM
FACE 6 OF (J,I,K) =  122,  20,   2 IS NOT A BOUNDARY FACE.    RIVER LEAKAGE FLOW TREATED AS SOURCE/SINK TERM
FACE 6 OF (J,I,K) =  121,  20,   2 IS NOT A BOUNDARY FACE.    RIVER LEAKAGE FLOW TREATED AS SOURCE/SINK TERM
FACE 6 OF (J,I,K) =  121,  19,   2 IS NOT A BOUNDARY FACE.    RIVER LEAKAGE FLOW TREATED AS SOURCE/SINK TERM
 Reading               ET for Period    1   Time Step    1
 Reading  HEAD DEP BOUNDS for Period    1   Time Step    1
FACE 6 OF (J,I,K) =  207, 106,   2 IS NOT A BOUNDARY FACE.  HEAD DEP BOUNDS FLOW TREATED AS SOURCE/SINK TERM
FACE 6 OF (J,I,K) =  207, 106,   3 IS NOT A BOUNDARY FACE.  HEAD DEP BOUNDS FLOW TREATED AS SOURCE/SINK TERM
FACE 6 OF (J,I,K) =  207, 106,   4 IS NOT A BOUNDARY FACE.  HEAD DEP BOUNDS FLOW TREATED AS SOURCE/SINK TERM
FACE 6 OF (J,I,K) =  207, 106,   5 IS NOT A BOUNDARY FACE.  HEAD DEP BOUNDS FLOW TREATED AS SOURCE/SINK TERM
FACE 6 OF (J,I,K) =  207, 105,   2 IS NOT A BOUNDARY FACE.  HEAD DEP BOUNDS FLOW TREATED AS SOURCE/SINK TERM
FACE 6 OF (J,I,K) =  207, 105,   3 IS NOT A BOUNDARY FACE.  HEAD DEP BOUNDS FLOW TREATED AS SOURCE/SINK TERM
FACE 6 OF (J,I,K) =  207, 105,   4 IS NOT A BOUNDARY FACE.  HEAD DEP BOUNDS FLOW TREATED AS SOURCE/SINK TERM
FACE 6 OF (J,I,K) =  207, 105,   5 IS NOT A BOUNDARY FACE.  HEAD DEP BOUNDS FLOW TREATED AS SOURCE/SINK TERM
FACE 6 OF (J,I,K) =  207, 104,   2 IS NOT A BOUNDARY FACE.  HEAD DEP BOUNDS FLOW TREATED AS SOURCE/SINK TERM
FACE 6 OF (J,I,K) =  207, 104,   3 IS NOT A BOUNDARY FACE.  HEAD DEP BOUNDS FLOW TREATED AS SOURCE/SINK TERM
FACE 6 OF (J,I,K) =  207, 104,   4 IS NOT A BOUNDARY FACE.  HEAD DEP BOUNDS FLOW TREATED AS SOURCE/SINK TERM
FACE 6 OF (J,I,K) =  207, 104,   5 IS NOT A BOUNDARY FACE.  HEAD DEP BOUNDS FLOW TREATED AS SOURCE/SINK TERM
FACE 6 OF (J,I,K) =  207, 103,   2 IS NOT A BOUNDARY FACE.  HEAD DEP BOUNDS FLOW TREATED AS SOURCE/SINK TERM
FACE 6 OF (J,I,K) =  207, 103,   3 IS NOT A BOUNDARY FACE.  HEAD DEP BOUNDS FLOW TREATED AS SOURCE/SINK TERM
FACE 6 OF (J,I,K) =  207, 103,   4 IS NOT A BOUNDARY FACE.  HEAD DEP BOUNDS FLOW TREATED AS SOURCE/SINK TERM
FACE 6 OF (J,I,K) =  207, 103,   5 IS NOT A BOUNDARY FACE.  HEAD DEP BOUNDS FLOW TREATED AS SOURCE/SINK TERM
FACE 6 OF (J,I,K) =  207, 102,   2 IS NOT A BOUNDARY FACE.  HEAD DEP BOUNDS FLOW TREATED AS SOURCE/SINK TERM
FACE 6 OF (J,I,K) =  207, 102,   3 IS NOT A BOUNDARY FACE.  HEAD DEP BOUNDS FLOW TREATED AS SOURCE/SINK TERM
FACE 6 OF (J,I,K) =  207, 102,   4 IS NOT A BOUNDARY FACE.  HEAD DEP BOUNDS FLOW TREATED AS SOURCE/SINK TERM
FACE 6 OF (J,I,K) =  207, 102,   5 IS NOT A BOUNDARY FACE.  HEAD DEP BOUNDS FLOW TREATED AS SOURCE/SINK TERM
FACE 6 OF (J,I,K) =  207, 101,   2 IS NOT A BOUNDARY FACE.  HEAD DEP BOUNDS FLOW TREATED AS SOURCE/SINK TERM
FACE 6 OF (J,I,K) =  207, 101,   3 IS NOT A BOUNDARY FACE.  HEAD DEP BOUNDS FLOW TREATED AS SOURCE/SINK TERM
FACE 6 OF (J,I,K) =  207, 101,   4 IS NOT A BOUNDARY FACE.  HEAD DEP BOUNDS FLOW TREATED AS SOURCE/SINK TERM
FACE 6 OF (J,I,K) =  207, 101,   5 IS NOT A BOUNDARY FACE.  HEAD DEP BOUNDS FLOW TREATED AS SOURCE/SINK TERM
FACE 6 OF (J,I,K) =  207, 100,   2 IS NOT A BOUNDARY FACE.  HEAD DEP BOUNDS FLOW TREATED AS SOURCE/SINK TERM
FACE 6 OF (J,I,K) =  207, 100,   3 IS NOT A BOUNDARY FACE.  HEAD DEP BOUNDS FLOW TREATED AS SOURCE/SINK TERM
FACE 6 OF (J,I,K) =  207, 100,   4 IS NOT A BOUNDARY FACE.  HEAD DEP BOUNDS FLOW TREATED AS SOURCE/SINK TERM
FACE 6 OF (J,I,K) =  207, 100,   5 IS NOT A BOUNDARY FACE.  HEAD DEP BOUNDS FLOW TREATED AS SOURCE/SINK TERM
FACE 6 OF (J,I,K) =  207,  99,   2 IS NOT A BOUNDARY FACE.  HEAD DEP BOUNDS FLOW TREATED AS SOURCE/SINK TERM
FACE 6 OF (J,I,K) =  207,  99,   3 IS NOT A BOUNDARY FACE.  HEAD DEP BOUNDS FLOW TREATED AS SOURCE/SINK TERM
FACE 6 OF (J,I,K) =  207,  99,   4 IS NOT A BOUNDARY FACE.  HEAD DEP BOUNDS FLOW TREATED AS SOURCE/SINK TERM
FACE 6 OF (J,I,K) =  207,  99,   5 IS NOT A BOUNDARY FACE.  HEAD DEP BOUNDS FLOW TREATED AS SOURCE/SINK TERM
FACE 6 OF (J,I,K) =  207,  98,   2 IS NOT A BOUNDARY FACE.  HEAD DEP BOUNDS FLOW TREATED AS SOURCE/SINK TERM
FACE 6 OF (J,I,K) =  207,  98,   3 IS NOT A BOUNDARY FACE.  HEAD DEP BOUNDS FLOW TREATED AS SOURCE/SINK TERM
FACE 6 OF (J,I,K) =  207,  98,   4 IS NOT A BOUNDARY FACE.  HEAD DEP BOUNDS FLOW TREATED AS SOURCE/SINK TERM
FACE 6 OF (J,I,K) =  207,  98,   5 IS NOT A BOUNDARY FACE.  HEAD DEP BOUNDS FLOW TREATED AS SOURCE/SINK TERM
FACE 6 OF (J,I,K) =  207,  97,   2 IS NOT A BOUNDARY FACE.  HEAD DEP BOUNDS FLOW TREATED AS SOURCE/SINK TERM
FACE 6 OF (J,I,K) =  207,  97,   3 IS NOT A BOUNDARY FACE.  HEAD DEP BOUNDS FLOW TREATED AS SOURCE/SINK TERM
FACE 6 OF (J,I,K) =  207,  97,   4 IS NOT A BOUNDARY FACE.  HEAD DEP BOUNDS FLOW TREATED AS SOURCE/SINK TERM
FACE 6 OF (J,I,K) =  207,  97,   5 IS NOT A BOUNDARY FACE.  HEAD DEP BOUNDS FLOW TREATED AS SOURCE/SINK TERM
FACE 6 OF (J,I,K) =  207,  96,   2 IS NOT A BOUNDARY FACE.  HEAD DEP BOUNDS FLOW TREATED AS SOURCE/SINK TERM
FACE 6 OF (J,I,K) =  207,  96,   3 IS NOT A BOUNDARY FACE.  HEAD DEP BOUNDS FLOW TREATED AS SOURCE/SINK TERM
FACE 6 OF (J,I,K) =  207,  96,   4 IS NOT A BOUNDARY FACE.  HEAD DEP BOUNDS FLOW TREATED AS SOURCE/SINK TERM
FACE 6 OF (J,I,K) =  207,  96,   5 IS NOT A BOUNDARY FACE.  HEAD DEP BOUNDS FLOW TREATED AS SOURCE/SINK TERM
FACE 6 OF (J,I,K) =  207,  95,   2 IS NOT A BOUNDARY FACE.  HEAD DEP BOUNDS FLOW TREATED AS SOURCE/SINK TERM
FACE 6 OF (J,I,K) =  207,  95,   3 IS NOT A BOUNDARY FACE.  HEAD DEP BOUNDS FLOW TREATED AS SOURCE/SINK TERM
FACE 6 OF (J,I,K) =  207,  95,   4 IS NOT A BOUNDARY FACE.  HEAD DEP BOUNDS FLOW TREATED AS SOURCE/SINK TERM
FACE 6 OF (J,I,K) =  207,  95,   5 IS NOT A BOUNDARY FACE.  HEAD DEP BOUNDS FLOW TREATED AS SOURCE/SINK TERM
FACE 6 OF (J,I,K) =  207,  94,   2 IS NOT A BOUNDARY FACE.  HEAD DEP BOUNDS FLOW TREATED AS SOURCE/SINK TERM
FACE 6 OF (J,I,K) =  207,  94,   3 IS NOT A BOUNDARY FACE.  HEAD DEP BOUNDS FLOW TREATED AS SOURCE/SINK TERM
FACE 6 OF (J,I,K) =  207,  94,   4 IS NOT A BOUNDARY FACE.  HEAD DEP BOUNDS FLOW TREATED AS SOURCE/SINK TERM
FACE 6 OF (J,I,K) =  207,  94,   5 IS NOT A BOUNDARY FACE.  HEAD DEP BOUNDS FLOW TREATED AS SOURCE/SINK TERM
FACE 6 OF (J,I,K) =  207,  93,   2 IS NOT A BOUNDARY FACE.  HEAD DEP BOUNDS FLOW TREATED AS SOURCE/SINK TERM
FACE 6 OF (J,I,K) =  207,  93,   3 IS NOT A BOUNDARY FACE.  HEAD DEP BOUNDS FLOW TREATED AS SOURCE/SINK TERM
FACE 6 OF (J,I,K) =  207,  93,   4 IS NOT A BOUNDARY FACE.  HEAD DEP BOUNDS FLOW TREATED AS SOURCE/SINK TERM
FACE 6 OF (J,I,K) =  207,  93,   5 IS NOT A BOUNDARY FACE.  HEAD DEP BOUNDS FLOW TREATED AS SOURCE/SINK TERM
FACE 6 OF (J,I,K) =  207,  92,   2 IS NOT A BOUNDARY FACE.  HEAD DEP BOUNDS FLOW TREATED AS SOURCE/SINK TERM
FACE 6 OF (J,I,K) =  207,  92,   3 IS NOT A BOUNDARY FACE.  HEAD DEP BOUNDS FLOW TREATED AS SOURCE/SINK TERM
FACE 6 OF (J,I,K) =  207,  92,   4 IS NOT A BOUNDARY FACE.  HEAD DEP BOUNDS FLOW TREATED AS SOURCE/SINK TERM
FACE 6 OF (J,I,K) =  207,  92,   5 IS NOT A BOUNDARY FACE.  HEAD DEP BOUNDS FLOW TREATED AS SOURCE/SINK TERM
FACE 6 OF (J,I,K) =  207,  91,   2 IS NOT A BOUNDARY FACE.  HEAD DEP BOUNDS FLOW TREATED AS SOURCE/SINK TERM
FACE 6 OF (J,I,K) =  207,  91,   3 IS NOT A BOUNDARY FACE.  HEAD DEP BOUNDS FLOW TREATED AS SOURCE/SINK TERM
FACE 6 OF (J,I,K) =  207,  91,   4 IS NOT A BOUNDARY FACE.  HEAD DEP BOUNDS FLOW TREATED AS SOURCE/SINK TERM
FACE 6 OF (J,I,K) =  207,  91,   5 IS NOT A BOUNDARY FACE.  HEAD DEP BOUNDS FLOW TREATED AS SOURCE/SINK TERM
FACE 6 OF (J,I,K) =  207,  90,   2 IS NOT A BOUNDARY FACE.  HEAD DEP BOUNDS FLOW TREATED AS SOURCE/SINK TERM
FACE 6 OF (J,I,K) =  207,  90,   3 IS NOT A BOUNDARY FACE.  HEAD DEP BOUNDS FLOW TREATED AS SOURCE/SINK TERM
FACE 6 OF (J,I,K) =  207,  90,   4 IS NOT A BOUNDARY FACE.  HEAD DEP BOUNDS FLOW TREATED AS SOURCE/SINK TERM
FACE 6 OF (J,I,K) =  207,  90,   5 IS NOT A BOUNDARY FACE.  HEAD DEP BOUNDS FLOW TREATED AS SOURCE/SINK TERM
FACE 6 OF (J,I,K) =  207,  89,   2 IS NOT A BOUNDARY FACE.  HEAD DEP BOUNDS FLOW TREATED AS SOURCE/SINK TERM
FACE 6 OF (J,I,K) =  207,  89,   3 IS NOT A BOUNDARY FACE.  HEAD DEP BOUNDS FLOW TREATED AS SOURCE/SINK TERM
FACE 6 OF (J,I,K) =  207,  89,   4 IS NOT A BOUNDARY FACE.  HEAD DEP BOUNDS FLOW TREATED AS SOURCE/SINK TERM
FACE 6 OF (J,I,K) =  207,  89,   5 IS NOT A BOUNDARY FACE.  HEAD DEP BOUNDS FLOW TREATED AS SOURCE/SINK TERM
FACE 6 OF (J,I,K) =  207,  88,   2 IS NOT A BOUNDARY FACE.  HEAD DEP BOUNDS FLOW TREATED AS SOURCE/SINK TERM
FACE 6 OF (J,I,K) =  207,  88,   3 IS NOT A BOUNDARY FACE.  HEAD DEP BOUNDS FLOW TREATED AS SOURCE/SINK TERM
FACE 6 OF (J,I,K) =  207,  88,   4 IS NOT A BOUNDARY FACE.  HEAD DEP BOUNDS FLOW TREATED AS SOURCE/SINK TERM
FACE 6 OF (J,I,K) =  207,  88,   5 IS NOT A BOUNDARY FACE.  HEAD DEP BOUNDS FLOW TREATED AS SOURCE/SINK TERM
FACE 6 OF (J,I,K) =  207,  87,   2 IS NOT A BOUNDARY FACE.  HEAD DEP BOUNDS FLOW TREATED AS SOURCE/SINK TERM
FACE 6 OF (J,I,K) =  207,  87,   3 IS NOT A BOUNDARY FACE.  HEAD DEP BOUNDS FLOW TREATED AS SOURCE/SINK TERM
[...]
   23  131    1   0.0014    0.22531E-04
   23  134    1   0.0010    0.10133E-04
   23  135    1   0.0014    0.91791E-05
   23  136    1   0.0016    0.45300E-05
   24  121    1  -0.0011   -0.10610E-04
   26  153    1   0.0026    0.48280E-04
   27   76    1-143.1065   -0.12097E+01
   27  153    1   0.0011    0.86784E-04
   29  152    1   0.0013    0.10605E-02
   29  153    1-147.4366   -0.14914E+02
   30  153    1-162.9273   -0.22264E+02
   31  149    1  -0.0013   -0.31281E-02
   31  152    1  -0.0016   -0.14725E-02
   32  154    1   0.0020    0.33677E-05
   36  139    1   0.0075    0.35095E-03
   37  130    1   0.0122    0.12531E-02
   37  131    1   0.0042    0.34256E-02
   37  132    1  -0.0049   -0.48599E-02
   37  133    1   0.0013    0.17700E-02
   37  139    1-159.3999   -0.13427E+02
   38  129    1   0.0126    0.87881E-03
   38  130    1-177.2549   -0.17328E+02
   38  131    1-122.2152   -0.34599E+02
   38  132    1   0.0040    0.32501E-02
   38  148    1   0.0012    0.36316E-02
   38  156    1   0.0019    0.47833E-05
   39  156    1   0.0011    0.26226E-05
   40  136    1  -0.0032   -0.68054E-02
   41  136    1   0.0013    0.22430E-02
   41  154    1  -0.0021   -0.18845E-02
   41  160    1  -0.0011   -0.12665E-02
   42  137    1   0.0012    0.32959E-02
   42  153    1   0.0035    0.65308E-02
   42  154    1   0.0043    0.53711E-02
   43  137    1  -0.0012   -0.31891E-02
   43  152    1   0.0016    0.43030E-02
   43  153    1   0.0011    0.28076E-02
   43  154    1   0.0010    0.19684E-02
   43  157    1   0.0010    0.10371E-04
   43  160    1  -0.0012   -0.12817E-02
   44  154    1   0.0052    0.86823E-02
   44  160    1  -0.0012   -0.10605E-02
   44  161    1   0.0013    0.21667E-02
   45  138    1   0.0011    0.19226E-02
   45  148    1  -0.0019   -0.39520E-02
   46  137    1  -0.0041   -0.55542E-02
   46  138    1   0.0031    0.36926E-02
   46  139    1   0.0030    0.33951E-02
   46  140    1  -0.0012   -0.20294E-02
   46  142    1   0.0010    0.19989E-02
   46  148    1   0.0023    0.29373E-02
   47  136    1   0.0021    0.28534E-02
   47  137    1   0.0107    0.11581E-01
   47  143    1  -0.0016   -0.30670E-02
   47  144    1   0.0016    0.30975E-02
   47  145    1   0.0021    0.43793E-02
   47  151    1   0.0011    0.44556E-02
   47  152    1   0.0015    0.58899E-02
   47  161    1   0.0019    0.25024E-02
   47  162    1  -0.0035   -0.11017E-01
   48  106    1  -0.0020   -0.44403E-02
   48  146    1  -0.0096   -0.83542E-02
   48  162    1  -0.0040   -0.14557E-01
   49  146    1  -0.0022   -0.85831E-03
   49  147    1  -0.0046   -0.14572E-02
   49  160    1  15.4842    0.22542E+02
   49  161    1  -0.0032   -0.12543E-01
   49  162    1   0.0012    0.57983E-02
   49  163    1  -0.0010   -0.51575E-02
   50  106    1   0.0027    0.66071E-02
   50  146    1  -0.0027   -0.17776E-02
   50  160    1  -0.0077   -0.15762E-01
   50  161    1   0.0013    0.68970E-02
   51  107    1   0.0013    0.29144E-02
   51  137    1   0.0016    0.32043E-02
   51  146    1  -0.0116   -0.10246E-01
   51  150    1   0.0015    0.81787E-02
   51  159    1  -0.0158   -0.28809E-01
   51  160    1   0.0066    0.24536E-01
   51  161    1  -0.0014   -0.10376E-01
   52  107    1   0.0036    0.88806E-02
   52  145    1  -0.0010   -0.15869E-02
   52  146    1   0.0028    0.57831E-02
   52  159    1   0.0045    0.15442E-01
   52  160    1  -0.0028   -0.13947E-01
   53  145    1   0.0032    0.77057E-02
   53  152    1  -0.0012   -0.49438E-02
   53  158    1  -0.0034   -0.23560E-01
   53  159    1   0.0020    0.14832E-01
   53  160    1  -0.0022   -0.17517E-01
   53  161    1   0.0023    0.24170E-01
   54  138    1  -0.0011   -0.24261E-02
   54  144    1   0.0013    0.33875E-02
   54  161    1  -0.0016   -0.12512E-01
   55  141    1   0.0010    0.28381E-02
   55  142    1  -0.0017   -0.55237E-02
   56  108    1   0.0016    0.25024E-02
   56  162    1   0.0011    0.90332E-02
   57  109    1  -0.0024   -0.36926E-02
   57  110    1  -0.0026   -0.36163E-02
   59  112    1  -0.0017   -0.18005E-02
   59  127    1-176.5678   -0.13644E+02
   59  128    1-139.7506   -0.27238E+02
   59  129    1-126.8856   -0.28981E+02
   60  112    1   0.0048    0.81635E-02
   60  127    1  -0.0011   -0.56839E-03
   60  128    1  -0.0041   -0.23193E-02
   60  129    1   0.0029    0.16556E-02
   61  113    1   0.0016    0.33264E-02
   61  126    1   0.0011    0.53406E-03
   61  127    1  -0.0016   -0.84686E-03
   61  128    1   0.0015    0.74768E-03
   62   87    1   0.0012    0.23246E-04
   62  114    1   0.0020    0.40588E-02
   62  126    1-156.8284   -0.16684E+02
   63   86    1   0.0012    0.64850E-04
   63   87    1   0.0164    0.11837E-03
   63  114    1  -0.0011   -0.18311E-02
   63  115    1  -0.0015   -0.31738E-02
   64   86    1   0.0041    0.20742E-03
   64   87    1 118.3947    0.99970E+00
   64  128    1 200.0000    0.11388E+03
   65   86    1  -0.0102   -0.32997E-03
   65  168    1   0.0010    0.86670E-02
   66  117    1   0.0018    0.40894E-02
   66  128    1 200.0000    0.10491E+03
   67  118    1  -0.0011   -0.25787E-02
   67  169    1   0.0015    0.10803E-01
   68  127    1-168.3333   -0.15555E+02
   69   70    1  -0.0013   -0.47088E-05
   69   75    1   0.0032    0.44584E-04
   70   74    1  -0.0010   -0.75102E-05
   70  175    1   0.0016    0.10742E-01
   70  177    1   0.0012    0.30060E-02
   71  106    1   0.0017    0.10580E-05
   72  107    1   0.0014    0.30994E-05
   72  136    1  -0.0028   -0.13428E-01
   72  180    1   0.0036    0.65613E-02
   73  124    1   0.0028    0.67902E-02
   73  126    1   0.0014    0.43335E-02
   73  136    1  -0.0031   -0.17212E-01
   74  136    1  -0.0020   -0.11780E-01
   74  144    1   0.0016    0.21553E-03
   74  145    1   0.0027    0.12493E-03
   74  146    1   0.0014    0.64850E-04
   74  182    1   0.0011    0.11353E-01
   75   48    1   0.0014    0.36061E-05
   75  136    1  -0.0022   -0.14038E-01
   75  143    1   0.0010    0.22125E-03
   75  144    1   0.0017    0.23365E-03
   75  148    1   0.0012    0.26512E-03
   75  150    1   0.0011    0.28801E-03
   75  183    1   0.0010    0.67139E-02
   75  184    1   0.0016    0.90942E-02
   75  194    1   0.0010    0.13184E-01
   76   48    1   0.0142    0.18075E-04
   76   49    1  -0.0043   -0.25511E-04
   76  150    1   0.0011    0.23842E-03
   76  194    1  -0.0023   -0.13550E-01
   76  195    1   0.0011    0.43335E-02
   77   22    1 200.0000    0.10058E+03
   77   48    1-169.3225   -0.58389E+00
   77  149    1   0.0010    0.24986E-03
   77  186    1   0.0011    0.43640E-02
   77  187    1   0.0011    0.27466E-02
   77  193    1   0.0028    0.95215E-02
   77  194    1   0.0014    0.27924E-02
   78   22    1   0.0014    0.33826E-05
   78   49    1   0.0014    0.21935E-04
   78  148    1   0.0010    0.27275E-03
   78  149    1   0.0010    0.26321E-03
   78  187    1   0.0061    0.13428E-01
   79   48    1  -0.0014   -0.61691E-05
   79   73    1   0.0011    0.51975E-04
   79  148    1   0.0010    0.27275E-03
   79  149    1   0.0010    0.26894E-03
   79  193    1   0.0102    0.81482E-02
   80   35    1   0.0010    0.12815E-05
   80   36    1   0.0042    0.86308E-04
   80   37    1  -0.0022   -0.93937E-04
   80   72    1   0.0027    0.66042E-04
   80   73    1   0.0103    0.30041E-03
   80   74    1  -0.0085   -0.34904E-03
   80  148    1   0.0010    0.22316E-03
   80  193    1   0.0112    0.28778E-01
   81   36    1 171.9728    0.73271E+01
   81   37    1  -0.0012   -0.21815E-04
   81   71    1   0.0020    0.47922E-04
   81   72    1   0.0155    0.22256E-03
   81   73    1-174.2325   -0.72481E+01
   81   75    1   0.0036    0.13053E-04
   81   76    1   0.0024    0.52643E-03
   81   77    1  -0.0023   -0.57983E-03
   81  148    1   0.0015    0.29755E-03
   81  149    1   0.0010    0.32616E-03
   81  189    1   0.0079    0.13687E-01
   81  193    1   0.0022    0.24643E-02
   82   72    1  -0.0150   -0.75340E-04
   82   76    1-146.1276   -0.49562E+01
   82   77    1   0.0011    0.22697E-03
   82  148    1   0.0013    0.24414E-03
   82  171    1   0.0016    0.16975E-03
   82  192    1  -0.0067   -0.85144E-02
   83   77    1   0.0016    0.31114E-04
   83  124    1   0.0013    0.12338E-04
   83  136    1  -0.0018   -0.67749E-02
   83  146    1   0.0015    0.24223E-03
   83  192    1   0.0039    0.38528E-02
   84  145    1   0.0027    0.44060E-03
   84  146    1   0.0023    0.12541E-03
   84  147    1   0.0017    0.17166E-03
   84  172    1   0.0011    0.16022E-03
   84  173    1   0.0010    0.20981E-03
   84  192    1   0.0115    0.83313E-02
   85   32    1  -0.0010   -0.30696E-05
   85   33    1   0.0032    0.48131E-05
   85  144    1   0.0015    0.35667E-03
   85  145    1   0.0042    0.30041E-03
   85  146    1   0.0073    0.30899E-03
   85  147    1   0.0029    0.23365E-03
   85  148    1   0.0016    0.25368E-03
   85  173    1   0.0013    0.18406E-03
   85  188    1   0.0025    0.14465E-01
   85  189    1  -0.0022   -0.47455E-02
   85  190    1   0.0443    0.24467E-01
   85  191    1   0.0148    0.82321E-02
   85  192    1  -0.0082   -0.69656E-02
   86   28    1   0.0021    0.44107E-05
   86   84    1   0.0016    0.14648E-02
   86  144    1   0.0013    0.24605E-03
   86  145    1   0.0034    0.20456E-03
   86  146    1   0.0028    0.13065E-03
   86  147    1   0.0012    0.94414E-04
   87   84    1  -0.0021   -0.18539E-02
   87  144    1   0.0011    0.22316E-03
   87  145    1   0.0027    0.17118E-03
   87  146    1   0.0022    0.12112E-03
   87  147    1   0.0010    0.92506E-04
   88  137    1  -0.0011   -0.44861E-02
   88  145    1   0.0017    0.11539E-03
   88  146    1   0.0019    0.12159E-03
   88  147    1   0.0010    0.11444E-03
   88  192    1  -0.0011   -0.10986E-02
   88  193    1   0.0110    0.13603E-01
   89   85    1   0.0040    0.26932E-02
   89  146    1   0.0018    0.13542E-03
   89  147    1   0.0013    0.20409E-03
   89  192    1   0.0086    0.11276E-01
   90   85    1   0.0084    0.40054E-02
   90  113    1   0.0017    0.64671E-05
   90  137    1   0.0021    0.83313E-02
   90  144    1   0.0016    0.67711E-04
   90  145    1   0.0016    0.36240E-04
   90  146    1   0.0019    0.57697E-04
   90  191    1   0.0074    0.47226E-02
   91   76    1   0.0036    0.26093E-02
   91   77    1   0.0041    0.35400E-02
   91   85    1   0.0024    0.86594E-03
   91   86    1   0.0100    0.31147E-02
   91  137    1  -0.0013   -0.52490E-02
   91  144    1   0.0020    0.54121E-04
   91  179    1  -0.0012   -0.50964E-02
   91  191    1  -0.0055   -0.12146E-01
   92   78    1   0.0057    0.39978E-02
   92   79    1  -0.0061   -0.30594E-02
   92   86    1  -0.0593   -0.12403E-01
   92   93    1   0.0190    0.54359E-02
   92  137    1   0.0018    0.75684E-02
   92  178    1   0.0021    0.88196E-02
   93   81    1  -0.0019   -0.11673E-02
   93   82    1  -0.0036   -0.18845E-02
   93   83    1   0.0046    0.21095E-02
   93   87    1   0.0077    0.10605E-02
   93   93    1   0.0044    0.12989E-02
   93  143    1   0.0024    0.14019E-03
   93  178    1  -0.0027   -0.86975E-02
   94   87    1   0.0338    0.72250E-02
   94   92    1   0.0429    0.79308E-02
   94  143    1   0.0023    0.55075E-04
   94  144    1   0.0013    0.26464E-04
   94  177    1  -0.0017   -0.54626E-02
   94  190    1  -0.0012   -0.53406E-02
   95   88    1   0.0023    0.23556E-03
   95   91    1   0.0167    0.23851E-02
   95   92    1  -0.0300   -0.64869E-02
   95  143    1   0.0018    0.67711E-04
   95  144    1   0.0021    0.90599E-04
   95  145    1   0.0011    0.16022E-03
   95  146    1   0.0012    0.49210E-03
   95  176    1  -0.0020   -0.68054E-02
   95  190    1   0.0011    0.62256E-02
   96   91    1  -0.0144   -0.28305E-02
   96  137    1   0.0017    0.62866E-02
   96  142    1  -0.0012   -0.15163E-03
   96  189    1  -0.0012   -0.25940E-02
   96  190    1   0.0015    0.36926E-02
   97   91    1  -0.0110   -0.20523E-02
   97  137    1   0.0011    0.37537E-02
   97  143    1  -0.0013   -0.26894E-03
   97  146    1   0.0010    0.94604E-03
   97  189    1  -0.0015   -0.54321E-02
   98   30    1   0.0016    0.71526E-05
   98   31    1  -0.0076   -0.22948E-04
   98   32    1  -0.0013   -0.61393E-05
   98   65    1   0.0061    0.31805E-03
   98   66    1  -0.0107   -0.44012E-03
   98   92    1  -0.0014   -0.56839E-03
   98   93    1  -0.0026   -0.82779E-03
   98   94    1   0.0138    0.46577E-02
   98  137    1   0.0038    0.10376E-01
   98  145    1   0.0010    0.10223E-02
   98  146    1   0.0011    0.10986E-02
   99   29    1   0.0067    0.32842E-04
   99   30    1 147.3570    0.16380E+01
   99   31    1   0.0054    0.56997E-05
   99   64    1   0.0115    0.42653E-03
   99   65    1-172.7990   -0.73062E+01
   99   67    1   0.0013    0.23246E-04
   99   93    1   0.0086    0.31471E-02
   99   95    1  -0.0023   -0.77438E-03
   99   97    1   0.0025    0.10834E-02
   99  136    1  -0.0012   -0.94604E-03
   99  137    1   0.0047    0.10162E-01
   99  140    1  -0.0014   -0.94604E-03
   99  162    1   0.0022    0.11536E-01
   99  163    1   0.0042    0.17761E-01
   99  165    1   0.0062    0.20416E-01
   99  166    1  -0.0012   -0.51575E-02
   99  176    1  -0.0012   -0.22888E-02
   99  186    1  -0.0028   -0.26398E-02
   99  187    1   0.0026    0.75378E-02
  100   29    1   0.0037    0.25272E-04
  100   30    1 146.9128    0.54509E+00
  100   64    1  -0.0321   -0.68247E-04
  100   93    1   0.0107    0.36545E-02
  100   97    1  -0.0070   -0.23193E-02
  100   98    1   0.0077    0.25139E-02
  100  100    1   0.0058    0.32692E-02
  100  101    1   0.0066    0.40932E-02
  100  102    1   0.0044    0.28839E-02
  100  133    1  -0.0018   -0.75531E-03
  100  134    1  -0.0014   -0.69427E-03
  100  135    1  -0.0018   -0.10834E-02
  100  136    1  -0.0013   -0.89264E-03
  100  137    1   0.0023    0.35095E-02
  100  144    1   0.0012    0.91553E-03
  100  161    1   0.0030    0.14679E-01
  100  172    1   0.0018    0.77820E-02
  100  173    1   0.0012    0.43640E-02
  100  174    1   0.0011    0.36316E-02
  100  175    1   0.0026    0.66833E-02
  100  176    1  -0.0043   -0.39444E-02
  100  185    1   0.0148    0.10361E-01
  100  186    1  -0.0013   -0.18311E-02
  101   29    1   0.0165    0.27537E-03
  101   30    1-137.8014   -0.24368E+01
  101   63    1  -0.0018   -0.24557E-04
  101   73    1 200.0000    0.34046E+00
  101   93    1   0.0113    0.38185E-02
  101  102    1   0.0055    0.23003E-02
  101  103    1   0.0120    0.52299E-02
  101  104    1   0.0154    0.58022E-02
  101  106    1  -0.0051   -0.19035E-02
  101  107    1  -0.0034   -0.14839E-02
  101  132    1  -0.0011   -0.69427E-03
  101  135    1  -0.0013   -0.90027E-03
  101  137    1   0.0049    0.89417E-02
  101  138    1  -0.0016   -0.96130E-03
  101  139    1   0.0039    0.26321E-02
  101  140    1  -0.0011   -0.82397E-03
  101  141    1  -0.0019   -0.16174E-02
  101  144    1   0.0018    0.12360E-02
  101  145    1   0.0021    0.14114E-02
  101  146    1   0.0024    0.14801E-02
  101  147    1   0.0014    0.86975E-03
  101  153    1   0.0013    0.11047E-01
  101  177    1  -0.0041   -0.54474E-02
  101  184    1   0.0081    0.81787E-02
  101  185    1  -0.0017   -0.26245E-02
  102   28    1   0.0011    0.26464E-04
  102   29    1  -0.0114   -0.22793E-03
  102   30    1   0.0240    0.17446E-03
  102   92    1   0.0032    0.17128E-02
  102  117    1   0.0057    0.57602E-02
  102  118    1   0.0018    0.22430E-02
  102  119    1  -0.0054   -0.44861E-02
  102  120    1   0.0012    0.12360E-02
  102  121    1   0.0043    0.46463E-02
  102  123    1   0.0031    0.37079E-02
  102  124    1  -0.0013   -0.17242E-02
  102  133    1   0.0034    0.58746E-02
  102  134    1   0.0012    0.25635E-02
  102  136    1  -0.0013   -0.24109E-02
  102  138    1   0.0027    0.20828E-02
  102  141    1   0.0056    0.17670E-01
  102  142    1   0.0042    0.15564E-01
  102  144    1   0.0013    0.97656E-03
  102  145    1   0.0033    0.19760E-02
  102  146    1   0.0032    0.17395E-02
  102  147    1   0.0021    0.11864E-02
  102  149    1  -0.0011   -0.70953E-03
  102  153    1   0.0020    0.16541E-01
  102  154    1   0.0014    0.11658E-01
  102  155    1   0.0016    0.15015E-01
  102  157    1   0.0014    0.12054E-02
  102  159    1   0.0010    0.12817E-02
  102  177    1   0.0022    0.82397E-02
  103   28    1  -0.0018   -0.44107E-04
  103   29    1   0.0028    0.57936E-04
  103   30    1   0.0236    0.36585E-03
  103   31    1 -86.1210   -0.10015E+01
  103   92    1   0.0091    0.48904E-02
  103  135    1  -0.0010   -0.56458E-03
  103  136    1  -0.0022   -0.18768E-02
  103  137    1   0.0039    0.13245E-01
  103  138    1  -0.0038   -0.10895E-01
  103  139    1   0.0011    0.29907E-02
  103  142    1   0.0012    0.28687E-02
  103  143    1  -0.0020   -0.58594E-02
  103  145    1   0.0026    0.14992E-02
  103  146    1   0.0049    0.25330E-02
  103  147    1   0.0033    0.16060E-02
  103  148    1  -0.0016   -0.76294E-03
  103  151    1   0.0028    0.20065E-02
  103  152    1   0.0029    0.21545E-01
  103  160    1   0.0026    0.10010E-01
  104   28    1   0.0015    0.33855E-04
  104   29    1   0.0022    0.50306E-04
  104   30    1  -0.0182   -0.32091E-03
  104   31    1   0.0070    0.87619E-04
  104   32    1   0.0018    0.10014E-04
  104   92    1  -0.0043   -0.25253E-02
  104  129    1  -0.0033   -0.66071E-02
  104  135    1   0.0049    0.16594E-02
  104  136    1   0.0036    0.20943E-02
  104  137    1   0.0013    0.94604E-03
  104  140    1  -0.0019   -0.91553E-03
  104  141    1  -0.0028   -0.13962E-02
  104  143    1   0.0031    0.64850E-02
  104  146    1   0.0026    0.13390E-02
  104  147    1  -0.0159   -0.70305E-02
  104  148    1  -0.0068   -0.29297E-02
  104  149    1   0.0051    0.13409E-02
  104  150    1   0.0068    0.28954E-02
  104  151    1   0.0027    0.10986E-01
  104  154    1   0.0049    0.17052E-02
  104  157    1   0.0011    0.50964E-02
  104  158    1   0.0019    0.57373E-02
  104  159    1   0.0020    0.59814E-02
  104  177    1  -0.0013   -0.52490E-02
  104  179    1   0.0017    0.11841E-01
  105   29    1  -0.0015   -0.35286E-04
  105   92    1  -0.0029   -0.19226E-02
  105  129    1   0.0057    0.11551E-01
  105  133    1   0.0014    0.49591E-03
  105  134    1   0.0011    0.39673E-03
  105  135    1   0.0017    0.56839E-03
  105  136    1   0.0051    0.14210E-02
  105  137    1  -0.0011   -0.42343E-03
  105  140    1  -0.0016   -0.73624E-03
  105  141    1  -0.0025   -0.12321E-02
  105  142    1  -0.0018   -0.91171E-03
  105  143    1   0.0020    0.13885E-02
  105  145    1  -0.0030   -0.50964E-02
  105  146    1  -0.0038   -0.18585E-01
  105  147    1   0.0040    0.20874E-01
  105  148    1   0.0043    0.16541E-01
  105  149    1   0.0115    0.66147E-02
  105  150    1   0.0056    0.38910E-02
  105  153    1   0.0028    0.93460E-03
  105  154    1   0.0043    0.11368E-02
  105  155    1   0.0022    0.57602E-03
  105  159    1   0.0017    0.84534E-02
  105  200    1   0.0025    0.86308E-04
  106   92    1   0.0025    0.19302E-02
  106  129    1  -0.0020   -0.42725E-02
  106  133    1   0.0011    0.41580E-03
  106  134    1   0.0015    0.56458E-03
  106  135    1   0.0013    0.53024E-03
  106  136    1   0.0015    0.53024E-03
  106  139    1   0.0011    0.50735E-03
  106  141    1  -0.0012   -0.12360E-02
  106  142    1  -0.0030   -0.16212E-02
  106  143    1   0.0056    0.29068E-02
  106  144    1   0.0080    0.51193E-02
  106  145    1   0.0026    0.14587E-01
    
 TRAVEL TIME SUMMARY FOR ALL PARTICLES:
 MINIMUM TRAVEL TIME =   0.00000E+00
 MAXIMUM TRAVEL TIME =   5.52068E+06
 AVERAGE TRAVEL TIME =   3.44852E+05
   81.7% OF THE PARTICLES HAD TRAVEL TIMES LESS THAN THEAVERAGE TRAVEL TIME
    
       0 PARTICLES REMAIN ACTIVE
     120 PARTICLES STOPPED AT INTERNAL SINKS/SOURCES OR BOUNDARIES
       0 PARTICLES STOPPED IN AN AUTOMATIC TERMINATION ZONE
       0 PARTICLES WERE STRANDED IN INACTIVE CELLS
       0 PARTICLES WERE NOT RELEASED
 -----
     120 PARTICLES ACCOUNTED FOR OUT OF A TOTAL OF     120
