MODPATH 5.0                                                                                                                                                                                                                                                     

 FILE UNIT NUMBER  10 HAS BEEN CONNECTED TO <C_MODPATH_particle set.mdf>
 FILE UNIT NUMBER  19 HAS BEEN CONNECTED TO <C:\pest\A\C_MODFLOW\C.dis>
 FILE UNIT NUMBER  71 WILL BE CONNECTED TO <C_MODPATH_particle set.loc>
 FILE UNIT NUMBER  75 WILL BE CONNECTED TO <C_MODPATH_particle set.ept>
 FILE UNIT NUMBER  76 WILL BE CONNECTED TO <C_MODPATH_particle set.pth>
 FILE UNIT NUMBER 730 HAS BEEN CONNECTED TO <C:\pest\A\C_MODFLOW\C.hed>
 FILE UNIT NUMBER  40 HAS BEEN CONNECTED TO <C:\pest\A\C_MODFLOW\C.ccf>
 

 DISCRETIZATION INPUT DATA READ FROM UNIT 19
 # MF2K DISCRETIZATION FILE
 #
 #
 # NLAY NROW NCOL NPER TIMEUNITS LENUNITS
   16 LAYERS       125 ROWS       125 COLUMNS
   1 STRESS PERIOD(S) IN SIMULATION
 MODEL TIME UNIT IS DAYS
 MODEL LENGTH UNIT IS METERS
  Confining bed flag for each layer:
   0   0   0   0   0   0   0   0   0   0   0   0   0   0   0   0
  IRCHTP=            1      IEVTTP=            1
 MAXIMUM NUMBER OF PARTICLES IS   500000
 7770161 ELEMENTS IN THE "A" ARRAY



                               DELR
 READING ON UNIT  19 WITH FORMAT: (FREE)              



                               DELC
 READING ON UNIT  19 WITH FORMAT: (FREE)              


 STRESS PERIOD     LENGTH       TIME STEPS     MULTIPLIER FOR DELT    SS FLAG
 ----------------------------------------------------------------------------
        1         1.000000          1                    1.000         SS

 STEADY-STATE SIMULATION



  
  125 COLUMNS  125 ROWS   16 LAYERS    0 CONFINING LAYERS
 IGRID (GRID TYPE CODE) IS 0
  
 LAYCON (LAYER TYPE CODES):
  1  1  1  1  1  1  1  1  1  1  1  1  1  1  1  1

 IBOUND                   =              1 FOR LAYER   1

 IBOUND                   =              1 FOR LAYER   2

 IBOUND                   =              1 FOR LAYER   3

 IBOUND                   =              1 FOR LAYER   4

 IBOUND                   =              1 FOR LAYER   5

 IBOUND                   =              1 FOR LAYER   6

 IBOUND                   =              1 FOR LAYER   7

 IBOUND                   =              1 FOR LAYER   8

 IBOUND                   =              1 FOR LAYER   9

 IBOUND                   =              1 FOR LAYER  10

 IBOUND                   =              1 FOR LAYER  11

 IBOUND                   =              1 FOR LAYER  12

 IBOUND                   =              1 FOR LAYER  13

 IBOUND                   =              1 FOR LAYER  14

 IBOUND                   =              1 FOR LAYER  15

 IBOUND                   =              1 FOR LAYER  16



           POROSITY                 FOR LAYER   1
 READING ON UNIT  10 WITH FORMAT: (FREE)              



           POROSITY                 FOR LAYER   2
 READING ON UNIT  10 WITH FORMAT: (FREE)              



           POROSITY                 FOR LAYER   3
 READING ON UNIT  10 WITH FORMAT: (FREE)              



           POROSITY                 FOR LAYER   4
 READING ON UNIT  10 WITH FORMAT: (FREE)              



           POROSITY                 FOR LAYER   5
 READING ON UNIT  10 WITH FORMAT: (FREE)              



           POROSITY                 FOR LAYER   6
 READING ON UNIT  10 WITH FORMAT: (FREE)              



           POROSITY                 FOR LAYER   7
 READING ON UNIT  10 WITH FORMAT: (FREE)              



           POROSITY                 FOR LAYER   8
 READING ON UNIT  10 WITH FORMAT: (FREE)              



           POROSITY                 FOR LAYER   9
 READING ON UNIT  10 WITH FORMAT: (FREE)              



           POROSITY                 FOR LAYER  10
 READING ON UNIT  10 WITH FORMAT: (FREE)              



           POROSITY                 FOR LAYER  11
 READING ON UNIT  10 WITH FORMAT: (FREE)              



           POROSITY                 FOR LAYER  12
 READING ON UNIT  10 WITH FORMAT: (FREE)              



           POROSITY                 FOR LAYER  13
 READING ON UNIT  10 WITH FORMAT: (FREE)              



           POROSITY                 FOR LAYER  14
 READING ON UNIT  10 WITH FORMAT: (FREE)              



           POROSITY                 FOR LAYER  15
 READING ON UNIT  10 WITH FORMAT: (FREE)              



           POROSITY                 FOR LAYER  16
 READING ON UNIT  10 WITH FORMAT: (FREE)              
 Single Precision Binary Files determined from Head file
  
  ---------------
 HEADS WERE READ FOR LAYER   1, STRESS PERIOD   1 TIME STEP    1
 HEADS WERE READ FOR LAYER   2, STRESS PERIOD   1 TIME STEP    1
 HEADS WERE READ FOR LAYER   3, STRESS PERIOD   1 TIME STEP    1
 HEADS WERE READ FOR LAYER   4, STRESS PERIOD   1 TIME STEP    1
 HEADS WERE READ FOR LAYER   5, STRESS PERIOD   1 TIME STEP    1
 HEADS WERE READ FOR LAYER   6, STRESS PERIOD   1 TIME STEP    1
 HEADS WERE READ FOR LAYER   7, STRESS PERIOD   1 TIME STEP    1
 HEADS WERE READ FOR LAYER   8, STRESS PERIOD   1 TIME STEP    1
 HEADS WERE READ FOR LAYER   9, STRESS PERIOD   1 TIME STEP    1
 HEADS WERE READ FOR LAYER  10, STRESS PERIOD   1 TIME STEP    1
 HEADS WERE READ FOR LAYER  11, STRESS PERIOD   1 TIME STEP    1
 HEADS WERE READ FOR LAYER  12, STRESS PERIOD   1 TIME STEP    1
 HEADS WERE READ FOR LAYER  13, STRESS PERIOD   1 TIME STEP    1
 HEADS WERE READ FOR LAYER  14, STRESS PERIOD   1 TIME STEP    1
 HEADS WERE READ FOR LAYER  15, STRESS PERIOD   1 TIME STEP    1
 HEADS WERE READ FOR LAYER  16, STRESS PERIOD   1 TIME STEP    1
 HEADS HAVE BEEN READ
 READING FLOW PACKAGE BUDGET DATA FOR STRESS PERIOD    1 , TIME STEP    1 ...
 Reading    CONSTANT HEAD for Period    1   Time Step    1
 Reading FLOW RIGHT FACE  for Period    1   Time Step    1
 Reading FLOW FRONT FACE  for Period    1   Time Step    1
 Reading FLOW LOWER FACE  for Period    1   Time Step    1
   FLOW RATES BETWEEN CELLS HAVE BEEN READ
 Reading    RIVER LEAKAGE for Period    1   Time Step    1
FACE 6 OF (J,I,K) =   40,  20,   2 IS NOT A BOUNDARY FACE.    RIVER LEAKAGE FLOW TREATED AS SOURCE/SINK TERM
FACE 6 OF (J,I,K) =   39,  20,   3 IS NOT A BOUNDARY FACE.    RIVER LEAKAGE FLOW TREATED AS SOURCE/SINK TERM
FACE 6 OF (J,I,K) =   38,  20,   3 IS NOT A BOUNDARY FACE.    RIVER LEAKAGE FLOW TREATED AS SOURCE/SINK TERM
FACE 6 OF (J,I,K) =   38,  19,   3 IS NOT A BOUNDARY FACE.    RIVER LEAKAGE FLOW TREATED AS SOURCE/SINK TERM
FACE 6 OF (J,I,K) =   37,  19,   4 IS NOT A BOUNDARY FACE.    RIVER LEAKAGE FLOW TREATED AS SOURCE/SINK TERM
FACE 6 OF (J,I,K) =   37,  18,   4 IS NOT A BOUNDARY FACE.    RIVER LEAKAGE FLOW TREATED AS SOURCE/SINK TERM
FACE 6 OF (J,I,K) =   36,  18,   5 IS NOT A BOUNDARY FACE.    RIVER LEAKAGE FLOW TREATED AS SOURCE/SINK TERM
FACE 6 OF (J,I,K) =   35,  18,   5 IS NOT A BOUNDARY FACE.    RIVER LEAKAGE FLOW TREATED AS SOURCE/SINK TERM
FACE 6 OF (J,I,K) =   35,  17,   5 IS NOT A BOUNDARY FACE.    RIVER LEAKAGE FLOW TREATED AS SOURCE/SINK TERM
FACE 6 OF (J,I,K) =   34,  17,   5 IS NOT A BOUNDARY FACE.    RIVER LEAKAGE FLOW TREATED AS SOURCE/SINK TERM
FACE 6 OF (J,I,K) =   33,  17,   5 IS NOT A BOUNDARY FACE.    RIVER LEAKAGE FLOW TREATED AS SOURCE/SINK TERM
FACE 6 OF (J,I,K) =   33,  16,   5 IS NOT A BOUNDARY FACE.    RIVER LEAKAGE FLOW TREATED AS SOURCE/SINK TERM
FACE 6 OF (J,I,K) =   32,  16,   5 IS NOT A BOUNDARY FACE.    RIVER LEAKAGE FLOW TREATED AS SOURCE/SINK TERM
FACE 6 OF (J,I,K) =   31,  16,   5 IS NOT A BOUNDARY FACE.    RIVER LEAKAGE FLOW TREATED AS SOURCE/SINK TERM
FACE 6 OF (J,I,K) =   31,  15,   5 IS NOT A BOUNDARY FACE.    RIVER LEAKAGE FLOW TREATED AS SOURCE/SINK TERM
FACE 6 OF (J,I,K) =   30,  15,   5 IS NOT A BOUNDARY FACE.    RIVER LEAKAGE FLOW TREATED AS SOURCE/SINK TERM
FACE 6 OF (J,I,K) =   29,  15,   4 IS NOT A BOUNDARY FACE.    RIVER LEAKAGE FLOW TREATED AS SOURCE/SINK TERM
FACE 6 OF (J,I,K) =   29,  14,   4 IS NOT A BOUNDARY FACE.    RIVER LEAKAGE FLOW TREATED AS SOURCE/SINK TERM
FACE 6 OF (J,I,K) =   28,  14,   4 IS NOT A BOUNDARY FACE.    RIVER LEAKAGE FLOW TREATED AS SOURCE/SINK TERM
FACE 6 OF (J,I,K) =   27,  14,   4 IS NOT A BOUNDARY FACE.    RIVER LEAKAGE FLOW TREATED AS SOURCE/SINK TERM
FACE 6 OF (J,I,K) =   27,  13,   4 IS NOT A BOUNDARY FACE.    RIVER LEAKAGE FLOW TREATED AS SOURCE/SINK TERM
FACE 6 OF (J,I,K) =   26,  13,   4 IS NOT A BOUNDARY FACE.    RIVER LEAKAGE FLOW TREATED AS SOURCE/SINK TERM
FACE 6 OF (J,I,K) =   55,  28,   6 IS NOT A BOUNDARY FACE.    RIVER LEAKAGE FLOW TREATED AS SOURCE/SINK TERM
FACE 6 OF (J,I,K) =   55,  27,   6 IS NOT A BOUNDARY FACE.    RIVER LEAKAGE FLOW TREATED AS SOURCE/SINK TERM
FACE 6 OF (J,I,K) =   54,  27,   6 IS NOT A BOUNDARY FACE.    RIVER LEAKAGE FLOW TREATED AS SOURCE/SINK TERM
FACE 6 OF (J,I,K) =   53,  27,   7 IS NOT A BOUNDARY FACE.    RIVER LEAKAGE FLOW TREATED AS SOURCE/SINK TERM
FACE 6 OF (J,I,K) =   53,  26,   7 IS NOT A BOUNDARY FACE.    RIVER LEAKAGE FLOW TREATED AS SOURCE/SINK TERM
FACE 6 OF (J,I,K) =   52,  26,   7 IS NOT A BOUNDARY FACE.    RIVER LEAKAGE FLOW TREATED AS SOURCE/SINK TERM
FACE 6 OF (J,I,K) =   51,  26,   7 IS NOT A BOUNDARY FACE.    RIVER LEAKAGE FLOW TREATED AS SOURCE/SINK TERM
FACE 6 OF (J,I,K) =   51,  25,   6 IS NOT A BOUNDARY FACE.    RIVER LEAKAGE FLOW TREATED AS SOURCE/SINK TERM
FACE 6 OF (J,I,K) =   50,  25,   6 IS NOT A BOUNDARY FACE.    RIVER LEAKAGE FLOW TREATED AS SOURCE/SINK TERM
FACE 6 OF (J,I,K) =   49,  25,   6 IS NOT A BOUNDARY FACE.    RIVER LEAKAGE FLOW TREATED AS SOURCE/SINK TERM
FACE 6 OF (J,I,K) =   49,  24,   5 IS NOT A BOUNDARY FACE.    RIVER LEAKAGE FLOW TREATED AS SOURCE/SINK TERM
FACE 6 OF (J,I,K) =   48,  24,   4 IS NOT A BOUNDARY FACE.    RIVER LEAKAGE FLOW TREATED AS SOURCE/SINK TERM
FACE 6 OF (J,I,K) =   47,  24,   4 IS NOT A BOUNDARY FACE.    RIVER LEAKAGE FLOW TREATED AS SOURCE/SINK TERM
FACE 6 OF (J,I,K) =   46,  24,   3 IS NOT A BOUNDARY FACE.    RIVER LEAKAGE FLOW TREATED AS SOURCE/SINK TERM
FACE 6 OF (J,I,K) =   46,  23,   2 IS NOT A BOUNDARY FACE.    RIVER LEAKAGE FLOW TREATED AS SOURCE/SINK TERM
FACE 6 OF (J,I,K) =   45,  23,   2 IS NOT A BOUNDARY FACE.    RIVER LEAKAGE FLOW TREATED AS SOURCE/SINK TERM
FACE 6 OF (J,I,K) =   40,  21,   2 IS NOT A BOUNDARY FACE.    RIVER LEAKAGE FLOW TREATED AS SOURCE/SINK TERM
FACE 6 OF (J,I,K) =   40,  20,   2 IS NOT A BOUNDARY FACE.    RIVER LEAKAGE FLOW TREATED AS SOURCE/SINK TERM
FACE 6 OF (J,I,K) =   68,  34,   5 IS NOT A BOUNDARY FACE.    RIVER LEAKAGE FLOW TREATED AS SOURCE/SINK TERM
FACE 6 OF (J,I,K) =   67,  34,   5 IS NOT A BOUNDARY FACE.    RIVER LEAKAGE FLOW TREATED AS SOURCE/SINK TERM
FACE 6 OF (J,I,K) =   66,  34,   4 IS NOT A BOUNDARY FACE.    RIVER LEAKAGE FLOW TREATED AS SOURCE/SINK TERM
FACE 6 OF (J,I,K) =   66,  33,   4 IS NOT A BOUNDARY FACE.    RIVER LEAKAGE FLOW TREATED AS SOURCE/SINK TERM
FACE 6 OF (J,I,K) =   65,  33,   4 IS NOT A BOUNDARY FACE.    RIVER LEAKAGE FLOW TREATED AS SOURCE/SINK TERM
FACE 6 OF (J,I,K) =   65,  32,   4 IS NOT A BOUNDARY FACE.    RIVER LEAKAGE FLOW TREATED AS SOURCE/SINK TERM
FACE 6 OF (J,I,K) =   64,  32,   4 IS NOT A BOUNDARY FACE.    RIVER LEAKAGE FLOW TREATED AS SOURCE/SINK TERM
FACE 6 OF (J,I,K) =   63,  32,   4 IS NOT A BOUNDARY FACE.    RIVER LEAKAGE FLOW TREATED AS SOURCE/SINK TERM
FACE 6 OF (J,I,K) =   63,  31,   4 IS NOT A BOUNDARY FACE.    RIVER LEAKAGE FLOW TREATED AS SOURCE/SINK TERM
FACE 6 OF (J,I,K) =   62,  31,   4 IS NOT A BOUNDARY FACE.    RIVER LEAKAGE FLOW TREATED AS SOURCE/SINK TERM
FACE 6 OF (J,I,K) =   61,  31,   4 IS NOT A BOUNDARY FACE.    RIVER LEAKAGE FLOW TREATED AS SOURCE/SINK TERM
FACE 6 OF (J,I,K) =   61,  30,   4 IS NOT A BOUNDARY FACE.    RIVER LEAKAGE FLOW TREATED AS SOURCE/SINK TERM
FACE 6 OF (J,I,K) =   60,  30,   4 IS NOT A BOUNDARY FACE.    RIVER LEAKAGE FLOW TREATED AS SOURCE/SINK TERM
FACE 6 OF (J,I,K) =   59,  30,   4 IS NOT A BOUNDARY FACE.    RIVER LEAKAGE FLOW TREATED AS SOURCE/SINK TERM
FACE 6 OF (J,I,K) =   59,  29,   5 IS NOT A BOUNDARY FACE.    RIVER LEAKAGE FLOW TREATED AS SOURCE/SINK TERM
FACE 6 OF (J,I,K) =   58,  29,   5 IS NOT A BOUNDARY FACE.    RIVER LEAKAGE FLOW TREATED AS SOURCE/SINK TERM
FACE 6 OF (J,I,K) =   57,  29,   5 IS NOT A BOUNDARY FACE.    RIVER LEAKAGE FLOW TREATED AS SOURCE/SINK TERM
FACE 6 OF (J,I,K) =   57,  28,   6 IS NOT A BOUNDARY FACE.    RIVER LEAKAGE FLOW TREATED AS SOURCE/SINK TERM
FACE 6 OF (J,I,K) =   56,  28,   6 IS NOT A BOUNDARY FACE.    RIVER LEAKAGE FLOW TREATED AS SOURCE/SINK TERM
FACE 6 OF (J,I,K) =   55,  28,   6 IS NOT A BOUNDARY FACE.    RIVER LEAKAGE FLOW TREATED AS SOURCE/SINK TERM
FACE 6 OF (J,I,K) =   82,  41,   4 IS NOT A BOUNDARY FACE.    RIVER LEAKAGE FLOW TREATED AS SOURCE/SINK TERM
FACE 6 OF (J,I,K) =   81,  41,   3 IS NOT A BOUNDARY FACE.    RIVER LEAKAGE FLOW TREATED AS SOURCE/SINK TERM
FACE 6 OF (J,I,K) =   81,  40,   3 IS NOT A BOUNDARY FACE.    RIVER LEAKAGE FLOW TREATED AS SOURCE/SINK TERM
FACE 6 OF (J,I,K) =   80,  40,   3 IS NOT A BOUNDARY FACE.    RIVER LEAKAGE FLOW TREATED AS SOURCE/SINK TERM
FACE 6 OF (J,I,K) =   79,  40,   3 IS NOT A BOUNDARY FACE.    RIVER LEAKAGE FLOW TREATED AS SOURCE/SINK TERM
FACE 6 OF (J,I,K) =   79,  39,   3 IS NOT A BOUNDARY FACE.    RIVER LEAKAGE FLOW TREATED AS SOURCE/SINK TERM
FACE 6 OF (J,I,K) =   78,  39,   3 IS NOT A BOUNDARY FACE.    RIVER LEAKAGE FLOW TREATED AS SOURCE/SINK TERM
FACE 6 OF (J,I,K) =   77,  39,   3 IS NOT A BOUNDARY FACE.    RIVER LEAKAGE FLOW TREATED AS SOURCE/SINK TERM
FACE 6 OF (J,I,K) =   77,  38,   3 IS NOT A BOUNDARY FACE.    RIVER LEAKAGE FLOW TREATED AS SOURCE/SINK TERM
FACE 6 OF (J,I,K) =   76,  38,   4 IS NOT A BOUNDARY FACE.    RIVER LEAKAGE FLOW TREATED AS SOURCE/SINK TERM
FACE 6 OF (J,I,K) =   75,  38,   4 IS NOT A BOUNDARY FACE.    RIVER LEAKAGE FLOW TREATED AS SOURCE/SINK TERM
FACE 6 OF (J,I,K) =   75,  37,   4 IS NOT A BOUNDARY FACE.    RIVER LEAKAGE FLOW TREATED AS SOURCE/SINK TERM
FACE 6 OF (J,I,K) =   74,  37,   4 IS NOT A BOUNDARY FACE.    RIVER LEAKAGE FLOW TREATED AS SOURCE/SINK TERM
FACE 6 OF (J,I,K) =   73,  37,   5 IS NOT A BOUNDARY FACE.    RIVER LEAKAGE FLOW TREATED AS SOURCE/SINK TERM
FACE 6 OF (J,I,K) =   73,  36,   5 IS NOT A BOUNDARY FACE.    RIVER LEAKAGE FLOW TREATED AS SOURCE/SINK TERM
FACE 6 OF (J,I,K) =   72,  36,   5 IS NOT A BOUNDARY FACE.    RIVER LEAKAGE FLOW TREATED AS SOURCE/SINK TERM
FACE 6 OF (J,I,K) =   71,  36,   5 IS NOT A BOUNDARY FACE.    RIVER LEAKAGE FLOW TREATED AS SOURCE/SINK TERM
FACE 6 OF (J,I,K) =   70,  36,   5 IS NOT A BOUNDARY FACE.    RIVER LEAKAGE FLOW TREATED AS SOURCE/SINK TERM
FACE 6 OF (J,I,K) =   70,  35,   5 IS NOT A BOUNDARY FACE.    RIVER LEAKAGE FLOW TREATED AS SOURCE/SINK TERM
FACE 6 OF (J,I,K) =   69,  35,   5 IS NOT A BOUNDARY FACE.    RIVER LEAKAGE FLOW TREATED AS SOURCE/SINK TERM
FACE 6 OF (J,I,K) =   68,  35,   5 IS NOT A BOUNDARY FACE.    RIVER LEAKAGE FLOW TREATED AS SOURCE/SINK TERM
FACE 6 OF (J,I,K) =   68,  34,   5 IS NOT A BOUNDARY FACE.    RIVER LEAKAGE FLOW TREATED AS SOURCE/SINK TERM
FACE 6 OF (J,I,K) =   97,  49,   5 IS NOT A BOUNDARY FACE.    RIVER LEAKAGE FLOW TREATED AS SOURCE/SINK TERM
FACE 6 OF (J,I,K) =   96,  49,   5 IS NOT A BOUNDARY FACE.    RIVER LEAKAGE FLOW TREATED AS SOURCE/SINK TERM
FACE 6 OF (J,I,K) =   96,  48,   5 IS NOT A BOUNDARY FACE.    RIVER LEAKAGE FLOW TREATED AS SOURCE/SINK TERM
FACE 6 OF (J,I,K) =   95,  48,   5 IS NOT A BOUNDARY FACE.    RIVER LEAKAGE FLOW TREATED AS SOURCE/SINK TERM
FACE 6 OF (J,I,K) =   94,  48,   6 IS NOT A BOUNDARY FACE.    RIVER LEAKAGE FLOW TREATED AS SOURCE/SINK TERM
FACE 6 OF (J,I,K) =   94,  47,   6 IS NOT A BOUNDARY FACE.    RIVER LEAKAGE FLOW TREATED AS SOURCE/SINK TERM
FACE 6 OF (J,I,K) =   93,  47,   6 IS NOT A BOUNDARY FACE.    RIVER LEAKAGE FLOW TREATED AS SOURCE/SINK TERM
FACE 6 OF (J,I,K) =   92,  47,   6 IS NOT A BOUNDARY FACE.    RIVER LEAKAGE FLOW TREATED AS SOURCE/SINK TERM
FACE 6 OF (J,I,K) =   92,  46,   6 IS NOT A BOUNDARY FACE.    RIVER LEAKAGE FLOW TREATED AS SOURCE/SINK TERM
FACE 6 OF (J,I,K) =   91,  46,   6 IS NOT A BOUNDARY FACE.    RIVER LEAKAGE FLOW TREATED AS SOURCE/SINK TERM
FACE 6 OF (J,I,K) =   90,  46,   6 IS NOT A BOUNDARY FACE.    RIVER LEAKAGE FLOW TREATED AS SOURCE/SINK TERM
FACE 6 OF (J,I,K) =   90,  45,   6 IS NOT A BOUNDARY FACE.    RIVER LEAKAGE FLOW TREATED AS SOURCE/SINK TERM
FACE 6 OF (J,I,K) =   89,  45,   5 IS NOT A BOUNDARY FACE.    RIVER LEAKAGE FLOW TREATED AS SOURCE/SINK TERM
FACE 6 OF (J,I,K) =   88,  45,   5 IS NOT A BOUNDARY FACE.    RIVER LEAKAGE FLOW TREATED AS SOURCE/SINK TERM
FACE 6 OF (J,I,K) =   88,  44,   5 IS NOT A BOUNDARY FACE.    RIVER LEAKAGE FLOW TREATED AS SOURCE/SINK TERM
FACE 6 OF (J,I,K) =   87,  44,   5 IS NOT A BOUNDARY FACE.    RIVER LEAKAGE FLOW TREATED AS SOURCE/SINK TERM
FACE 6 OF (J,I,K) =   86,  44,   5 IS NOT A BOUNDARY FACE.    RIVER LEAKAGE FLOW TREATED AS SOURCE/SINK TERM
FACE 6 OF (J,I,K) =   86,  43,   5 IS NOT A BOUNDARY FACE.    RIVER LEAKAGE FLOW TREATED AS SOURCE/SINK TERM
FACE 6 OF (J,I,K) =   85,  43,   4 IS NOT A BOUNDARY FACE.    RIVER LEAKAGE FLOW TREATED AS SOURCE/SINK TERM
FACE 6 OF (J,I,K) =   84,  43,   4 IS NOT A BOUNDARY FACE.    RIVER LEAKAGE FLOW TREATED AS SOURCE/SINK TERM
FACE 6 OF (J,I,K) =   84,  42,   4 IS NOT A BOUNDARY FACE.    RIVER LEAKAGE FLOW TREATED AS SOURCE/SINK TERM
FACE 6 OF (J,I,K) =   83,  42,   4 IS NOT A BOUNDARY FACE.    RIVER LEAKAGE FLOW TREATED AS SOURCE/SINK TERM
FACE 6 OF (J,I,K) =   83,  41,   4 IS NOT A BOUNDARY FACE.    RIVER LEAKAGE FLOW TREATED AS SOURCE/SINK TERM
FACE 6 OF (J,I,K) =   82,  41,   4 IS NOT A BOUNDARY FACE.    RIVER LEAKAGE FLOW TREATED AS SOURCE/SINK TERM
FACE 6 OF (J,I,K) =  111,  56,   3 IS NOT A BOUNDARY FACE.    RIVER LEAKAGE FLOW TREATED AS SOURCE/SINK TERM
FACE 6 OF (J,I,K) =  110,  56,   3 IS NOT A BOUNDARY FACE.    RIVER LEAKAGE FLOW TREATED AS SOURCE/SINK TERM
FACE 6 OF (J,I,K) =  110,  55,   2 IS NOT A BOUNDARY FACE.    RIVER LEAKAGE FLOW TREATED AS SOURCE/SINK TERM
FACE 6 OF (J,I,K) =  109,  55,   2 IS NOT A BOUNDARY FACE.    RIVER LEAKAGE FLOW TREATED AS SOURCE/SINK TERM
FACE 6 OF (J,I,K) =  108,  55,   3 IS NOT A BOUNDARY FACE.    RIVER LEAKAGE FLOW TREATED AS SOURCE/SINK TERM
FACE 6 OF (J,I,K) =  108,  54,   2 IS NOT A BOUNDARY FACE.    RIVER LEAKAGE FLOW TREATED AS SOURCE/SINK TERM
FACE 6 OF (J,I,K) =  107,  54,   2 IS NOT A BOUNDARY FACE.    RIVER LEAKAGE FLOW TREATED AS SOURCE/SINK TERM
FACE 6 OF (J,I,K) =  106,  54,   2 IS NOT A BOUNDARY FACE.    RIVER LEAKAGE FLOW TREATED AS SOURCE/SINK TERM
FACE 6 OF (J,I,K) =  104,  53,   2 IS NOT A BOUNDARY FACE.    RIVER LEAKAGE FLOW TREATED AS SOURCE/SINK TERM
FACE 6 OF (J,I,K) =  104,  52,   2 IS NOT A BOUNDARY FACE.    RIVER LEAKAGE FLOW TREATED AS SOURCE/SINK TERM
FACE 6 OF (J,I,K) =  103,  52,   2 IS NOT A BOUNDARY FACE.    RIVER LEAKAGE FLOW TREATED AS SOURCE/SINK TERM
FACE 6 OF (J,I,K) =  102,  52,   3 IS NOT A BOUNDARY FACE.    RIVER LEAKAGE FLOW TREATED AS SOURCE/SINK TERM
FACE 6 OF (J,I,K) =  102,  51,   2 IS NOT A BOUNDARY FACE.    RIVER LEAKAGE FLOW TREATED AS SOURCE/SINK TERM
FACE 6 OF (J,I,K) =  101,  51,   3 IS NOT A BOUNDARY FACE.    RIVER LEAKAGE FLOW TREATED AS SOURCE/SINK TERM
FACE 6 OF (J,I,K) =  100,  51,   3 IS NOT A BOUNDARY FACE.    RIVER LEAKAGE FLOW TREATED AS SOURCE/SINK TERM
FACE 6 OF (J,I,K) =  100,  50,   4 IS NOT A BOUNDARY FACE.    RIVER LEAKAGE FLOW TREATED AS SOURCE/SINK TERM
FACE 6 OF (J,I,K) =   99,  50,   4 IS NOT A BOUNDARY FACE.    RIVER LEAKAGE FLOW TREATED AS SOURCE/SINK TERM
FACE 6 OF (J,I,K) =   98,  50,   5 IS NOT A BOUNDARY FACE.    RIVER LEAKAGE FLOW TREATED AS SOURCE/SINK TERM
FACE 6 OF (J,I,K) =   98,  49,   5 IS NOT A BOUNDARY FACE.    RIVER LEAKAGE FLOW TREATED AS SOURCE/SINK TERM
FACE 6 OF (J,I,K) =   97,  49,   5 IS NOT A BOUNDARY FACE.    RIVER LEAKAGE FLOW TREATED AS SOURCE/SINK TERM
FACE 6 OF (J,I,K) =  125,  63,   3 IS NOT A BOUNDARY FACE.    RIVER LEAKAGE FLOW TREATED AS SOURCE/SINK TERM
FACE 6 OF (J,I,K) =  124,  63,   4 IS NOT A BOUNDARY FACE.    RIVER LEAKAGE FLOW TREATED AS SOURCE/SINK TERM
FACE 6 OF (J,I,K) =  124,  62,   4 IS NOT A BOUNDARY FACE.    RIVER LEAKAGE FLOW TREATED AS SOURCE/SINK TERM
FACE 6 OF (J,I,K) =  123,  62,   4 IS NOT A BOUNDARY FACE.    RIVER LEAKAGE FLOW TREATED AS SOURCE/SINK TERM
FACE 6 OF (J,I,K) =  122,  62,   4 IS NOT A BOUNDARY FACE.    RIVER LEAKAGE FLOW TREATED AS SOURCE/SINK TERM
FACE 6 OF (J,I,K) =  122,  61,   4 IS NOT A BOUNDARY FACE.    RIVER LEAKAGE FLOW TREATED AS SOURCE/SINK TERM
FACE 6 OF (J,I,K) =  121,  61,   4 IS NOT A BOUNDARY FACE.    RIVER LEAKAGE FLOW TREATED AS SOURCE/SINK TERM
FACE 6 OF (J,I,K) =  120,  61,   5 IS NOT A BOUNDARY FACE.    RIVER LEAKAGE FLOW TREATED AS SOURCE/SINK TERM
FACE 6 OF (J,I,K) =  120,  60,   5 IS NOT A BOUNDARY FACE.    RIVER LEAKAGE FLOW TREATED AS SOURCE/SINK TERM
FACE 6 OF (J,I,K) =  119,  60,   5 IS NOT A BOUNDARY FACE.    RIVER LEAKAGE FLOW TREATED AS SOURCE/SINK TERM
FACE 6 OF (J,I,K) =  118,  60,   5 IS NOT A BOUNDARY FACE.    RIVER LEAKAGE FLOW TREATED AS SOURCE/SINK TERM
FACE 6 OF (J,I,K) =  118,  59,   5 IS NOT A BOUNDARY FACE.    RIVER LEAKAGE FLOW TREATED AS SOURCE/SINK TERM
FACE 6 OF (J,I,K) =  117,  59,   5 IS NOT A BOUNDARY FACE.    RIVER LEAKAGE FLOW TREATED AS SOURCE/SINK TERM
FACE 6 OF (J,I,K) =  116,  59,   5 IS NOT A BOUNDARY FACE.    RIVER LEAKAGE FLOW TREATED AS SOURCE/SINK TERM
FACE 6 OF (J,I,K) =  116,  58,   5 IS NOT A BOUNDARY FACE.    RIVER LEAKAGE FLOW TREATED AS SOURCE/SINK TERM
FACE 6 OF (J,I,K) =  115,  58,   5 IS NOT A BOUNDARY FACE.    RIVER LEAKAGE FLOW TREATED AS SOURCE/SINK TERM
FACE 6 OF (J,I,K) =  114,  58,   4 IS NOT A BOUNDARY FACE.    RIVER LEAKAGE FLOW TREATED AS SOURCE/SINK TERM
FACE 6 OF (J,I,K) =  114,  57,   4 IS NOT A BOUNDARY FACE.    RIVER LEAKAGE FLOW TREATED AS SOURCE/SINK TERM
FACE 6 OF (J,I,K) =  113,  57,   4 IS NOT A BOUNDARY FACE.    RIVER LEAKAGE FLOW TREATED AS SOURCE/SINK TERM
FACE 6 OF (J,I,K) =  112,  57,   4 IS NOT A BOUNDARY FACE.    RIVER LEAKAGE FLOW TREATED AS SOURCE/SINK TERM
FACE 6 OF (J,I,K) =  112,  56,   3 IS NOT A BOUNDARY FACE.    RIVER LEAKAGE FLOW TREATED AS SOURCE/SINK TERM
FACE 6 OF (J,I,K) =  111,  56,   3 IS NOT A BOUNDARY FACE.    RIVER LEAKAGE FLOW TREATED AS SOURCE/SINK TERM
 Reading  HEAD DEP BOUNDS for Period    1   Time Step    1
FACE 6 OF (J,I,K) =    8,  51,   2 IS NOT A BOUNDARY FACE.  HEAD DEP BOUNDS FLOW TREATED AS SOURCE/SINK TERM
FACE 6 OF (J,I,K) =    8,  51,   3 IS NOT A BOUNDARY FACE.  HEAD DEP BOUNDS FLOW TREATED AS SOURCE/SINK TERM
FACE 6 OF (J,I,K) =    8,  51,   4 IS NOT A BOUNDARY FACE.  HEAD DEP BOUNDS FLOW TREATED AS SOURCE/SINK TERM
FACE 6 OF (J,I,K) =    8,  51,   5 IS NOT A BOUNDARY FACE.  HEAD DEP BOUNDS FLOW TREATED AS SOURCE/SINK TERM
FACE 6 OF (J,I,K) =    8,  51,   6 IS NOT A BOUNDARY FACE.  HEAD DEP BOUNDS FLOW TREATED AS SOURCE/SINK TERM
FACE 6 OF (J,I,K) =    8,  51,   7 IS NOT A BOUNDARY FACE.  HEAD DEP BOUNDS FLOW TREATED AS SOURCE/SINK TERM
FACE 6 OF (J,I,K) =    8,  51,   8 IS NOT A BOUNDARY FACE.  HEAD DEP BOUNDS FLOW TREATED AS SOURCE/SINK TERM
FACE 6 OF (J,I,K) =    8,  51,   9 IS NOT A BOUNDARY FACE.  HEAD DEP BOUNDS FLOW TREATED AS SOURCE/SINK TERM
FACE 6 OF (J,I,K) =    8,  51,  10 IS NOT A BOUNDARY FACE.  HEAD DEP BOUNDS FLOW TREATED AS SOURCE/SINK TERM
FACE 6 OF (J,I,K) =    8,  51,  11 IS NOT A BOUNDARY FACE.  HEAD DEP BOUNDS FLOW TREATED AS SOURCE/SINK TERM
FACE 6 OF (J,I,K) =    8,  51,  12 IS NOT A BOUNDARY FACE.  HEAD DEP BOUNDS FLOW TREATED AS SOURCE/SINK TERM
FACE 6 OF (J,I,K) =    8,  51,  13 IS NOT A BOUNDARY FACE.  HEAD DEP BOUNDS FLOW TREATED AS SOURCE/SINK TERM
FACE 6 OF (J,I,K) =    8,  51,  14 IS NOT A BOUNDARY FACE.  HEAD DEP BOUNDS FLOW TREATED AS SOURCE/SINK TERM
FACE 6 OF (J,I,K) =    8,  51,  15 IS NOT A BOUNDARY FACE.  HEAD DEP BOUNDS FLOW TREATED AS SOURCE/SINK TERM
FACE 6 OF (J,I,K) =    8,  51,  16 IS NOT A BOUNDARY FACE.  HEAD DEP BOUNDS FLOW TREATED AS SOURCE/SINK TERM
FACE 6 OF (J,I,K) =    7,  51,   2 IS NOT A BOUNDARY FACE.  HEAD DEP BOUNDS FLOW TREATED AS SOURCE/SINK TERM
FACE 6 OF (J,I,K) =    7,  51,   3 IS NOT A BOUNDARY FACE.  HEAD DEP BOUNDS FLOW TREATED AS SOURCE/SINK TERM
FACE 6 OF (J,I,K) =    7,  51,   4 IS NOT A BOUNDARY FACE.  HEAD DEP BOUNDS FLOW TREATED AS SOURCE/SINK TERM
FACE 6 OF (J,I,K) =    7,  51,   5 IS NOT A BOUNDARY FACE.  HEAD DEP BOUNDS FLOW TREATED AS SOURCE/SINK TERM
FACE 6 OF (J,I,K) =    7,  51,   6 IS NOT A BOUNDARY FACE.  HEAD DEP BOUNDS FLOW TREATED AS SOURCE/SINK TERM
FACE 6 OF (J,I,K) =    7,  51,   7 IS NOT A BOUNDARY FACE.  HEAD DEP BOUNDS FLOW TREATED AS SOURCE/SINK TERM
FACE 6 OF (J,I,K) =    7,  51,   8 IS NOT A BOUNDARY FACE.  HEAD DEP BOUNDS FLOW TREATED AS SOURCE/SINK TERM
FACE 6 OF (J,I,K) =    7,  51,   9 IS NOT A BOUNDARY FACE.  HEAD DEP BOUNDS FLOW TREATED AS SOURCE/SINK TERM
FACE 6 OF (J,I,K) =    7,  51,  10 IS NOT A BOUNDARY FACE.  HEAD DEP BOUNDS FLOW TREATED AS SOURCE/SINK TERM
FACE 6 OF (J,I,K) =    7,  51,  11 IS NOT A BOUNDARY FACE.  HEAD DEP BOUNDS FLOW TREATED AS SOURCE/SINK TERM
FACE 6 OF (J,I,K) =    7,  51,  12 IS NOT A BOUNDARY FACE.  HEAD DEP BOUNDS FLOW TREATED AS SOURCE/SINK TERM
FACE 6 OF (J,I,K) =    7,  51,  13 IS NOT A BOUNDARY FACE.  HEAD DEP BOUNDS FLOW TREATED AS SOURCE/SINK TERM
FACE 6 OF (J,I,K) =    7,  51,  14 IS NOT A BOUNDARY FACE.  HEAD DEP BOUNDS FLOW TREATED AS SOURCE/SINK TERM
FACE 6 OF (J,I,K) =    7,  51,  15 IS NOT A BOUNDARY FACE.  HEAD DEP BOUNDS FLOW TREATED AS SOURCE/SINK TERM
FACE 6 OF (J,I,K) =    7,  51,  16 IS NOT A BOUNDARY FACE.  HEAD DEP BOUNDS FLOW TREATED AS SOURCE/SINK TERM
FACE 6 OF (J,I,K) =    7,  52,   2 IS NOT A BOUNDARY FACE.  HEAD DEP BOUNDS FLOW TREATED AS SOURCE/SINK TERM
FACE 6 OF (J,I,K) =    7,  52,   3 IS NOT A BOUNDARY FACE.  HEAD DEP BOUNDS FLOW TREATED AS SOURCE/SINK TERM
FACE 6 OF (J,I,K) =    7,  52,   4 IS NOT A BOUNDARY FACE.  HEAD DEP BOUNDS FLOW TREATED AS SOURCE/SINK TERM
FACE 6 OF (J,I,K) =    7,  52,   5 IS NOT A BOUNDARY FACE.  HEAD DEP BOUNDS FLOW TREATED AS SOURCE/SINK TERM
FACE 6 OF (J,I,K) =    7,  52,   6 IS NOT A BOUNDARY FACE.  HEAD DEP BOUNDS FLOW TREATED AS SOURCE/SINK TERM
FACE 6 OF (J,I,K) =    7,  52,   7 IS NOT A BOUNDARY FACE.  HEAD DEP BOUNDS FLOW TREATED AS SOURCE/SINK TERM
FACE 6 OF (J,I,K) =    7,  52,   8 IS NOT A BOUNDARY FACE.  HEAD DEP BOUNDS FLOW TREATED AS SOURCE/SINK TERM
FACE 6 OF (J,I,K) =    7,  52,   9 IS NOT A BOUNDARY FACE.  HEAD DEP BOUNDS FLOW TREATED AS SOURCE/SINK TERM
FACE 6 OF (J,I,K) =    7,  52,  10 IS NOT A BOUNDARY FACE.  HEAD DEP BOUNDS FLOW TREATED AS SOURCE/SINK TERM
FACE 6 OF (J,I,K) =    7,  52,  11 IS NOT A BOUNDARY FACE.  HEAD DEP BOUNDS FLOW TREATED AS SOURCE/SINK TERM
FACE 6 OF (J,I,K) =    7,  52,  12 IS NOT A BOUNDARY FACE.  HEAD DEP BOUNDS FLOW TREATED AS SOURCE/SINK TERM
FACE 6 OF (J,I,K) =    7,  52,  13 IS NOT A BOUNDARY FACE.  HEAD DEP BOUNDS FLOW TREATED AS SOURCE/SINK TERM
FACE 6 OF (J,I,K) =    7,  52,  14 IS NOT A BOUNDARY FACE.  HEAD DEP BOUNDS FLOW TREATED AS SOURCE/SINK TERM
FACE 6 OF (J,I,K) =    7,  52,  15 IS NOT A BOUNDARY FACE.  HEAD DEP BOUNDS FLOW TREATED AS SOURCE/SINK TERM
FACE 6 OF (J,I,K) =    7,  52,  16 IS NOT A BOUNDARY FACE.  HEAD DEP BOUNDS FLOW TREATED AS SOURCE/SINK TERM
FACE 6 OF (J,I,K) =    7,  53,   2 IS NOT A BOUNDARY FACE.  HEAD DEP BOUNDS FLOW TREATED AS SOURCE/SINK TERM
FACE 6 OF (J,I,K) =    7,  53,   3 IS NOT A BOUNDARY FACE.  HEAD DEP BOUNDS FLOW TREATED AS SOURCE/SINK TERM
FACE 6 OF (J,I,K) =    7,  53,   4 IS NOT A BOUNDARY FACE.  HEAD DEP BOUNDS FLOW TREATED AS SOURCE/SINK TERM
FACE 6 OF (J,I,K) =    7,  53,   5 IS NOT A BOUNDARY FACE.  HEAD DEP BOUNDS FLOW TREATED AS SOURCE/SINK TERM
FACE 6 OF (J,I,K) =    7,  53,   6 IS NOT A BOUNDARY FACE.  HEAD DEP BOUNDS FLOW TREATED AS SOURCE/SINK TERM
FACE 6 OF (J,I,K) =    7,  53,   7 IS NOT A BOUNDARY FACE.  HEAD DEP BOUNDS FLOW TREATED AS SOURCE/SINK TERM
FACE 6 OF (J,I,K) =    7,  53,   8 IS NOT A BOUNDARY FACE.  HEAD DEP BOUNDS FLOW TREATED AS SOURCE/SINK TERM
FACE 6 OF (J,I,K) =    7,  53,   9 IS NOT A BOUNDARY FACE.  HEAD DEP BOUNDS FLOW TREATED AS SOURCE/SINK TERM
FACE 6 OF (J,I,K) =    7,  53,  10 IS NOT A BOUNDARY FACE.  HEAD DEP BOUNDS FLOW TREATED AS SOURCE/SINK TERM
FACE 6 OF (J,I,K) =    7,  53,  11 IS NOT A BOUNDARY FACE.  HEAD DEP BOUNDS FLOW TREATED AS SOURCE/SINK TERM
FACE 6 OF (J,I,K) =    7,  53,  12 IS NOT A BOUNDARY FACE.  HEAD DEP BOUNDS FLOW TREATED AS SOURCE/SINK TERM
FACE 6 OF (J,I,K) =    7,  53,  13 IS NOT A BOUNDARY FACE.  HEAD DEP BOUNDS FLOW TREATED AS SOURCE/SINK TERM
FACE 6 OF (J,I,K) =    7,  53,  14 IS NOT A BOUNDARY FACE.  HEAD DEP BOUNDS FLOW TREATED AS SOURCE/SINK TERM
FACE 6 OF (J,I,K) =    7,  53,  15 IS NOT A BOUNDARY FACE.  HEAD DEP BOUNDS FLOW TREATED AS SOURCE/SINK TERM
FACE 6 OF (J,I,K) =    7,  53,  16 IS NOT A BOUNDARY FACE.  HEAD DEP BOUNDS FLOW TREATED AS SOURCE/SINK TERM
FACE 6 OF (J,I,K) =    6,  53,   2 IS NOT A BOUNDARY FACE.  HEAD DEP BOUNDS FLOW TREATED AS SOURCE/SINK TERM
FACE 6 OF (J,I,K) =    6,  53,   3 IS NOT A BOUNDARY FACE.  HEAD DEP BOUNDS FLOW TREATED AS SOURCE/SINK TERM
FACE 6 OF (J,I,K) =    6,  53,   4 IS NOT A BOUNDARY FACE.  HEAD DEP BOUNDS FLOW TREATED AS SOURCE/SINK TERM
FACE 6 OF (J,I,K) =    6,  53,   5 IS NOT A BOUNDARY FACE.  HEAD DEP BOUNDS FLOW TREATED AS SOURCE/SINK TERM
FACE 6 OF (J,I,K) =    6,  53,   6 IS NOT A BOUNDARY FACE.  HEAD DEP BOUNDS FLOW TREATED AS SOURCE/SINK TERM
FACE 6 OF (J,I,K) =    6,  53,   7 IS NOT A BOUNDARY FACE.  HEAD DEP BOUNDS FLOW TREATED AS SOURCE/SINK TERM
FACE 6 OF (J,I,K) =    6,  53,   8 IS NOT A BOUNDARY FACE.  HEAD DEP BOUNDS FLOW TREATED AS SOURCE/SINK TERM
FACE 6 OF (J,I,K) =    6,  53,   9 IS NOT A BOUNDARY FACE.  HEAD DEP BOUNDS FLOW TREATED AS SOURCE/SINK TERM
FACE 6 OF (J,I,K) =    6,  53,  10 IS NOT A BOUNDARY FACE.  HEAD DEP BOUNDS FLOW TREATED AS SOURCE/SINK TERM
FACE 6 OF (J,I,K) =    6,  53,  11 IS NOT A BOUNDARY FACE.  HEAD DEP BOUNDS FLOW TREATED AS SOURCE/SINK TERM
FACE 6 OF (J,I,K) =    6,  53,  12 IS NOT A BOUNDARY FACE.  HEAD DEP BOUNDS FLOW TREATED AS SOURCE/SINK TERM
FACE 6 OF (J,I,K) =    6,  53,  13 IS NOT A BOUNDARY FACE.  HEAD DEP BOUNDS FLOW TREATED AS SOURCE/SINK TERM
FACE 6 OF (J,I,K) =    6,  53,  14 IS NOT A BOUNDARY FACE.  HEAD DEP BOUNDS FLOW TREATED AS SOURCE/SINK TERM
FACE 6 OF (J,I,K) =    6,  53,  15 IS NOT A BOUNDARY FACE.  HEAD DEP BOUNDS FLOW TREATED AS SOURCE/SINK TERM
FACE 6 OF (J,I,K) =    6,  53,  16 IS NOT A BOUNDARY FACE.  HEAD DEP BOUNDS FLOW TREATED AS SOURCE/SINK TERM
FACE 6 OF (J,I,K) =    6,  54,   2 IS NOT A BOUNDARY FACE.  HEAD DEP BOUNDS FLOW TREATED AS SOURCE/SINK TERM
FACE 6 OF (J,I,K) =    6,  54,   3 IS NOT A BOUNDARY FACE.  HEAD DEP BOUNDS FLOW TREATED AS SOURCE/SINK TERM
FACE 6 OF (J,I,K) =    6,  54,   4 IS NOT A BOUNDARY FACE.  HEAD DEP BOUNDS FLOW TREATED AS SOURCE/SINK TERM
FACE 6 OF (J,I,K) =    6,  54,   5 IS NOT A BOUNDARY FACE.  HEAD DEP BOUNDS FLOW TREATED AS SOURCE/SINK TERM
FACE 6 OF (J,I,K) =    6,  54,   6 IS NOT A BOUNDARY FACE.  HEAD DEP BOUNDS FLOW TREATED AS SOURCE/SINK TERM
FACE 6 OF (J,I,K) =    6,  54,   7 IS NOT A BOUNDARY FACE.  HEAD DEP BOUNDS FLOW TREATED AS SOURCE/SINK TERM
FACE 6 OF (J,I,K) =    6,  54,   8 IS NOT A BOUNDARY FACE.  HEAD DEP BOUNDS FLOW TREATED AS SOURCE/SINK TERM
FACE 6 OF (J,I,K) =    6,  54,   9 IS NOT A BOUNDARY FACE.  HEAD DEP BOUNDS FLOW TREATED AS SOURCE/SINK TERM
FACE 6 OF (J,I,K) =    6,  54,  10 IS NOT A BOUNDARY FACE.  HEAD DEP BOUNDS FLOW TREATED AS SOURCE/SINK TERM
FACE 6 OF (J,I,K) =    6,  54,  11 IS NOT A BOUNDARY FACE.  HEAD DEP BOUNDS FLOW TREATED AS SOURCE/SINK TERM
FACE 6 OF (J,I,K) =    6,  54,  12 IS NOT A BOUNDARY FACE.  HEAD DEP BOUNDS FLOW TREATED AS SOURCE/SINK TERM
FACE 6 OF (J,I,K) =    6,  54,  13 IS NOT A BOUNDARY FACE.  HEAD DEP BOUNDS FLOW TREATED AS SOURCE/SINK TERM
FACE 6 OF (J,I,K) =    6,  54,  14 IS NOT A BOUNDARY FACE.  HEAD DEP BOUNDS FLOW TREATED AS SOURCE/SINK TERM
FACE 6 OF (J,I,K) =    6,  54,  15 IS NOT A BOUNDARY FACE.  HEAD DEP BOUNDS FLOW TREATED AS SOURCE/SINK TERM
FACE 6 OF (J,I,K) =    6,  54,  16 IS NOT A BOUNDARY FACE.  HEAD DEP BOUNDS FLOW TREATED AS SOURCE/SINK TERM
FACE 6 OF (J,I,K) =    6,  55,   2 IS NOT A BOUNDARY FACE.  HEAD DEP BOUNDS FLOW TREATED AS SOURCE/SINK TERM
FACE 6 OF (J,I,K) =    6,  55,   3 IS NOT A BOUNDARY FACE.  HEAD DEP BOUNDS FLOW TREATED AS SOURCE/SINK TERM
FACE 6 OF (J,I,K) =    6,  55,   4 IS NOT A BOUNDARY FACE.  HEAD DEP BOUNDS FLOW TREATED AS SOURCE/SINK TERM
FACE 6 OF (J,I,K) =    6,  55,   5 IS NOT A BOUNDARY FACE.  HEAD DEP BOUNDS FLOW TREATED AS SOURCE/SINK TERM
FACE 6 OF (J,I,K) =    6,  55,   6 IS NOT A BOUNDARY FACE.  HEAD DEP BOUNDS FLOW TREATED AS SOURCE/SINK TERM
FACE 6 OF (J,I,K) =    6,  55,   7 IS NOT A BOUNDARY FACE.  HEAD DEP BOUNDS FLOW TREATED AS SOURCE/SINK TERM
FACE 6 OF (J,I,K) =    6,  55,   8 IS NOT A BOUNDARY FACE.  HEAD DEP BOUNDS FLOW TREATED AS SOURCE/SINK TERM
FACE 6 OF (J,I,K) =    6,  55,   9 IS NOT A BOUNDARY FACE.  HEAD DEP BOUNDS FLOW TREATED AS SOURCE/SINK TERM
FACE 6 OF (J,I,K) =    6,  55,  10 IS NOT A BOUNDARY FACE.  HEAD DEP BOUNDS FLOW TREATED AS SOURCE/SINK TERM
FACE 6 OF (J,I,K) =    6,  55,  11 IS NOT A BOUNDARY FACE.  HEAD DEP BOUNDS FLOW TREATED AS SOURCE/SINK TERM
FACE 6 OF (J,I,K) =    6,  55,  12 IS NOT A BOUNDARY FACE.  HEAD DEP BOUNDS FLOW TREATED AS SOURCE/SINK TERM
FACE 6 OF (J,I,K) =    6,  55,  13 IS NOT A BOUNDARY FACE.  HEAD DEP BOUNDS FLOW TREATED AS SOURCE/SINK TERM
FACE 6 OF (J,I,K) =    6,  55,  14 IS NOT A BOUNDARY FACE.  HEAD DEP BOUNDS FLOW TREATED AS SOURCE/SINK TERM
FACE 6 OF (J,I,K) =    6,  55,  15 IS NOT A BOUNDARY FACE.  HEAD DEP BOUNDS FLOW TREATED AS SOURCE/SINK TERM
FACE 6 OF (J,I,K) =    6,  55,  16 IS NOT A BOUNDARY FACE.  HEAD DEP BOUNDS FLOW TREATED AS SOURCE/SINK TERM
FACE 6 OF (J,I,K) =    5,  55,   2 IS NOT A BOUNDARY FACE.  HEAD DEP BOUNDS FLOW TREATED AS SOURCE/SINK TERM
FACE 6 OF (J,I,K) =    5,  55,   3 IS NOT A BOUNDARY FACE.  HEAD DEP BOUNDS FLOW TREATED AS SOURCE/SINK TERM
FACE 6 OF (J,I,K) =    5,  55,   4 IS NOT A BOUNDARY FACE.  HEAD DEP BOUNDS FLOW TREATED AS SOURCE/SINK TERM
FACE 6 OF (J,I,K) =    5,  55,   5 IS NOT A BOUNDARY FACE.  HEAD DEP BOUNDS FLOW TREATED AS SOURCE/SINK TERM
FACE 6 OF (J,I,K) =    5,  55,   6 IS NOT A BOUNDARY FACE.  HEAD DEP BOUNDS FLOW TREATED AS SOURCE/SINK TERM
FACE 6 OF (J,I,K) =    5,  55,   7 IS NOT A BOUNDARY FACE.  HEAD DEP BOUNDS FLOW TREATED AS SOURCE/SINK TERM
FACE 6 OF (J,I,K) =    5,  55,   8 IS NOT A BOUNDARY FACE.  HEAD DEP BOUNDS FLOW TREATED AS SOURCE/SINK TERM
FACE 6 OF (J,I,K) =    5,  55,   9 IS NOT A BOUNDARY FACE.  HEAD DEP BOUNDS FLOW TREATED AS SOURCE/SINK TERM
FACE 6 OF (J,I,K) =    5,  55,  10 IS NOT A BOUNDARY FACE.  HEAD DEP BOUNDS FLOW TREATED AS SOURCE/SINK TERM
FACE 6 OF (J,I,K) =    5,  55,  11 IS NOT A BOUNDARY FACE.  HEAD DEP BOUNDS FLOW TREATED AS SOURCE/SINK TERM
FACE 6 OF (J,I,K) =    5,  55,  12 IS NOT A BOUNDARY FACE.  HEAD DEP BOUNDS FLOW TREATED AS SOURCE/SINK TERM
FACE 6 OF (J,I,K) =    5,  55,  13 IS NOT A BOUNDARY FACE.  HEAD DEP BOUNDS FLOW TREATED AS SOURCE/SINK TERM
FACE 6 OF (J,I,K) =    5,  55,  14 IS NOT A BOUNDARY FACE.  HEAD DEP BOUNDS FLOW TREATED AS SOURCE/SINK TERM
FACE 6 OF (J,I,K) =    5,  55,  15 IS NOT A BOUNDARY FACE.  HEAD DEP BOUNDS FLOW TREATED AS SOURCE/SINK TERM
FACE 6 OF (J,I,K) =    5,  55,  16 IS NOT A BOUNDARY FACE.  HEAD DEP BOUNDS FLOW TREATED AS SOURCE/SINK TERM
FACE 6 OF (J,I,K) =    5,  56,   2 IS NOT A BOUNDARY FACE.  HEAD DEP BOUNDS FLOW TREATED AS SOURCE/SINK TERM
FACE 6 OF (J,I,K) =    5,  56,   3 IS NOT A BOUNDARY FACE.  HEAD DEP BOUNDS FLOW TREATED AS SOURCE/SINK TERM
FACE 6 OF (J,I,K) =    5,  56,   4 IS NOT A BOUNDARY FACE.  HEAD DEP BOUNDS FLOW TREATED AS SOURCE/SINK TERM
FACE 6 OF (J,I,K) =    5,  56,   5 IS NOT A BOUNDARY FACE.  HEAD DEP BOUNDS FLOW TREATED AS SOURCE/SINK TERM
FACE 6 OF (J,I,K) =    5,  56,   6 IS NOT A BOUNDARY FACE.  HEAD DEP BOUNDS FLOW TREATED AS SOURCE/SINK TERM
FACE 6 OF (J,I,K) =    5,  56,   7 IS NOT A BOUNDARY FACE.  HEAD DEP BOUNDS FLOW TREATED AS SOURCE/SINK TERM
FACE 6 OF (J,I,K) =    5,  56,   8 IS NOT A BOUNDARY FACE.  HEAD DEP BOUNDS FLOW TREATED AS SOURCE/SINK TERM
FACE 6 OF (J,I,K) =    5,  56,   9 IS NOT A BOUNDARY FACE.  HEAD DEP BOUNDS FLOW TREATED AS SOURCE/SINK TERM
FACE 6 OF (J,I,K) =    5,  56,  10 IS NOT A BOUNDARY FACE.  HEAD DEP BOUNDS FLOW TREATED AS SOURCE/SINK TERM
FACE 6 OF (J,I,K) =    5,  56,  11 IS NOT A BOUNDARY FACE.  HEAD DEP BOUNDS FLOW TREATED AS SOURCE/SINK TERM
FACE 6 OF (J,I,K) =    5,  56,  12 IS NOT A BOUNDARY FACE.  HEAD DEP BOUNDS FLOW TREATED AS SOURCE/SINK TERM
FACE 6 OF (J,I,K) =    5,  56,  13 IS NOT A BOUNDARY FACE.  HEAD DEP BOUNDS FLOW TREATED AS SOURCE/SINK TERM
FACE 6 OF (J,I,K) =    5,  56,  14 IS NOT A BOUNDARY FACE.  HEAD DEP BOUNDS FLOW TREATED AS SOURCE/SINK TERM
FACE 6 OF (J,I,K) =    5,  56,  15 IS NOT A BOUNDARY FACE.  HEAD DEP BOUNDS FLOW TREATED AS SOURCE/SINK TERM
FACE 6 OF (J,I,K) =    5,  56,  16 IS NOT A BOUNDARY FACE.  HEAD DEP BOUNDS FLOW TREATED AS SOURCE/SINK TERM
FACE 6 OF (J,I,K) =    5,  57,   2 IS NOT A BOUNDARY FACE.  HEAD DEP BOUNDS FLOW TREATED AS SOURCE/SINK TERM
FACE 6 OF (J,I,K) =    5,  57,   3 IS NOT A BOUNDARY FACE.  HEAD DEP BOUNDS FLOW TREATED AS SOURCE/SINK TERM
FACE 6 OF (J,I,K) =    5,  57,   4 IS NOT A BOUNDARY FACE.  HEAD DEP BOUNDS FLOW TREATED AS SOURCE/SINK TERM
FACE 6 OF (J,I,K) =    5,  57,   5 IS NOT A BOUNDARY FACE.  HEAD DEP BOUNDS FLOW TREATED AS SOURCE/SINK TERM
FACE 6 OF (J,I,K) =    5,  57,   6 IS NOT A BOUNDARY FACE.  HEAD DEP BOUNDS FLOW TREATED AS SOURCE/SINK TERM
FACE 6 OF (J,I,K) =    5,  57,   7 IS NOT A BOUNDARY FACE.  HEAD DEP BOUNDS FLOW TREATED AS SOURCE/SINK TERM
FACE 6 OF (J,I,K) =    5,  57,   8 IS NOT A BOUNDARY FACE.  HEAD DEP BOUNDS FLOW TREATED AS SOURCE/SINK TERM
FACE 6 OF (J,I,K) =    5,  57,   9 IS NOT A BOUNDARY FACE.  HEAD DEP BOUNDS FLOW TREATED AS SOURCE/SINK TERM
FACE 6 OF (J,I,K) =    5,  57,  10 IS NOT A BOUNDARY FACE.  HEAD DEP BOUNDS FLOW TREATED AS SOURCE/SINK TERM
FACE 6 OF (J,I,K) =    5,  57,  11 IS NOT A BOUNDARY FACE.  HEAD DEP BOUNDS FLOW TREATED AS SOURCE/SINK TERM
FACE 6 OF (J,I,K) =    5,  57,  12 IS NOT A BOUNDARY FACE.  HEAD DEP BOUNDS FLOW TREATED AS SOURCE/SINK TERM
FACE 6 OF (J,I,K) =    5,  57,  13 IS NOT A BOUNDARY FACE.  HEAD DEP BOUNDS FLOW TREATED AS SOURCE/SINK TERM
FACE 6 OF (J,I,K) =    5,  57,  14 IS NOT A BOUNDARY FACE.  HEAD DEP BOUNDS FLOW TREATED AS SOURCE/SINK TERM
FACE 6 OF (J,I,K) =    5,  57,  15 IS NOT A BOUNDARY FACE.  HEAD DEP BOUNDS FLOW TREATED AS SOURCE/SINK TERM
FACE 6 OF (J,I,K) =    5,  57,  16 IS NOT A BOUNDARY FACE.  HEAD DEP BOUNDS FLOW TREATED AS SOURCE/SINK TERM
FACE 6 OF (J,I,K) =    4,  57,   2 IS NOT A BOUNDARY FACE.  HEAD DEP BOUNDS FLOW TREATED AS SOURCE/SINK TERM
FACE 6 OF (J,I,K) =    4,  57,   3 IS NOT A BOUNDARY FACE.  HEAD DEP BOUNDS FLOW TREATED AS SOURCE/SINK TERM
FACE 6 OF (J,I,K) =    4,  57,   4 IS NOT A BOUNDARY FACE.  HEAD DEP BOUNDS FLOW TREATED AS SOURCE/SINK TERM
FACE 6 OF (J,I,K) =    4,  57,   5 IS NOT A BOUNDARY FACE.  HEAD DEP BOUNDS FLOW TREATED AS SOURCE/SINK TERM
FACE 6 OF (J,I,K) =    4,  57,   6 IS NOT A BOUNDARY FACE.  HEAD DEP BOUNDS FLOW TREATED AS SOURCE/SINK TERM
FACE 6 OF (J,I,K) =    4,  57,   7 IS NOT A BOUNDARY FACE.  HEAD DEP BOUNDS FLOW TREATED AS SOURCE/SINK TERM
FACE 6 OF (J,I,K) =    4,  57,   8 IS NOT A BOUNDARY FACE.  HEAD DEP BOUNDS FLOW TREATED AS SOURCE/SINK TERM
FACE 6 OF (J,I,K) =    4,  57,   9 IS NOT A BOUNDARY FACE.  HEAD DEP BOUNDS FLOW TREATED AS SOURCE/SINK TERM
FACE 6 OF (J,I,K) =    4,  57,  10 IS NOT A BOUNDARY FACE.  HEAD DEP BOUNDS FLOW TREATED AS SOURCE/SINK TERM
FACE 6 OF (J,I,K) =    4,  57,  11 IS NOT A BOUNDARY FACE.  HEAD DEP BOUNDS FLOW TREATED AS SOURCE/SINK TERM
FACE 6 OF (J,I,K) =    4,  57,  12 IS NOT A BOUNDARY FACE.  HEAD DEP BOUNDS FLOW TREATED AS SOURCE/SINK TERM
FACE 6 OF (J,I,K) =    4,  57,  13 IS NOT A BOUNDARY FACE.  HEAD DEP BOUNDS FLOW TREATED AS SOURCE/SINK TERM
FACE 6 OF (J,I,K) =    4,  57,  14 IS NOT A BOUNDARY FACE.  HEAD DEP BOUNDS FLOW TREATED AS SOURCE/SINK TERM
FACE 6 OF (J,I,K) =    4,  57,  15 IS NOT A BOUNDARY FACE.  HEAD DEP BOUNDS FLOW TREATED AS SOURCE/SINK TERM
FACE 6 OF (J,I,K) =    4,  57,  16 IS NOT A BOUNDARY FACE.  HEAD DEP BOUNDS FLOW TREATED AS SOURCE/SINK TERM
FACE 6 OF (J,I,K) =    4,  58,   2 IS NOT A BOUNDARY FACE.  HEAD DEP BOUNDS FLOW TREATED AS SOURCE/SINK TERM
FACE 6 OF (J,I,K) =    4,  58,   3 IS NOT A BOUNDARY FACE.  HEAD DEP BOUNDS FLOW TREATED AS SOURCE/SINK TERM
FACE 6 OF (J,I,K) =    4,  58,   4 IS NOT A BOUNDARY FACE.  HEAD DEP BOUNDS FLOW TREATED AS SOURCE/SINK TERM
FACE 6 OF (J,I,K) =    4,  58,   5 IS NOT A BOUNDARY FACE.  HEAD DEP BOUNDS FLOW TREATED AS SOURCE/SINK TERM
FACE 6 OF (J,I,K) =    4,  58,   6 IS NOT A BOUNDARY FACE.  HEAD DEP BOUNDS FLOW TREATED AS SOURCE/SINK TERM
FACE 6 OF (J,I,K) =    4,  58,   7 IS NOT A BOUNDARY FACE.  HEAD DEP BOUNDS FLOW TREATED AS SOURCE/SINK TERM
FACE 6 OF (J,I,K) =    4,  58,   8 IS NOT A BOUNDARY FACE.  HEAD DEP BOUNDS FLOW TREATED AS SOURCE/SINK TERM
FACE 6 OF (J,I,K) =    4,  58,   9 IS NOT A BOUNDARY FACE.  HEAD DEP BOUNDS FLOW TREATED AS SOURCE/SINK TERM
FACE 6 OF (J,I,K) =    4,  58,  10 IS NOT A BOUNDARY FACE.  HEAD DEP BOUNDS FLOW TREATED AS SOURCE/SINK TERM
FACE 6 OF (J,I,K) =    4,  58,  11 IS NOT A BOUNDARY FACE.  HEAD DEP BOUNDS FLOW TREATED AS SOURCE/SINK TERM
FACE 6 OF (J,I,K) =    4,  58,  12 IS NOT A BOUNDARY FACE.  HEAD DEP BOUNDS FLOW TREATED AS SOURCE/SINK TERM
FACE 6 OF (J,I,K) =    4,  58,  13 IS NOT A BOUNDARY FACE.  HEAD DEP BOUNDS FLOW TREATED AS SOURCE/SINK TERM
FACE 6 OF (J,I,K) =    4,  58,  14 IS NOT A BOUNDARY FACE.  HEAD DEP BOUNDS FLOW TREATED AS SOURCE/SINK TERM
FACE 6 OF (J,I,K) =    4,  58,  15 IS NOT A BOUNDARY FACE.  HEAD DEP BOUNDS FLOW TREATED AS SOURCE/SINK TERM
FACE 6 OF (J,I,K) =    4,  58,  16 IS NOT A BOUNDARY FACE.  HEAD DEP BOUNDS FLOW TREATED AS SOURCE/SINK TERM
FACE 6 OF (J,I,K) =    4,  59,   2 IS NOT A BOUNDARY FACE.  HEAD DEP BOUNDS FLOW TREATED AS SOURCE/SINK TERM
FACE 6 OF (J,I,K) =    4,  59,   3 IS NOT A BOUNDARY FACE.  HEAD DEP BOUNDS FLOW TREATED AS SOURCE/SINK TERM
FACE 6 OF (J,I,K) =    4,  59,   4 IS NOT A BOUNDARY FACE.  HEAD DEP BOUNDS FLOW TREATED AS SOURCE/SINK TERM
FACE 6 OF (J,I,K) =    4,  59,   5 IS NOT A BOUNDARY FACE.  HEAD DEP BOUNDS FLOW TREATED AS SOURCE/SINK TERM
FACE 6 OF (J,I,K) =    4,  59,   6 IS NOT A BOUNDARY FACE.  HEAD DEP BOUNDS FLOW TREATED AS SOURCE/SINK TERM
FACE 6 OF (J,I,K) =    4,  59,   7 IS NOT A BOUNDARY FACE.  HEAD DEP BOUNDS FLOW TREATED AS SOURCE/SINK TERM
FACE 6 OF (J,I,K) =    4,  59,   8 IS NOT A BOUNDARY FACE.  HEAD DEP BOUNDS FLOW TREATED AS SOURCE/SINK TERM
FACE 6 OF (J,I,K) =    4,  59,   9 IS NOT A BOUNDARY FACE.  HEAD DEP BOUNDS FLOW TREATED AS SOURCE/SINK TERM
FACE 6 OF (J,I,K) =    4,  59,  10 IS NOT A BOUNDARY FACE.  HEAD DEP BOUNDS FLOW TREATED AS SOURCE/SINK TERM
FACE 6 OF (J,I,K) =    4,  59,  11 IS NOT A BOUNDARY FACE.  HEAD DEP BOUNDS FLOW TREATED AS SOURCE/SINK TERM
FACE 6 OF (J,I,K) =    4,  59,  12 IS NOT A BOUNDARY FACE.  HEAD DEP BOUNDS FLOW TREATED AS SOURCE/SINK TERM
FACE 6 OF (J,I,K) =    4,  59,  13 IS NOT A BOUNDARY FACE.  HEAD DEP BOUNDS FLOW TREATED AS SOURCE/SINK TERM
FACE 6 OF (J,I,K) =    4,  59,  14 IS NOT A BOUNDARY FACE.  HEAD DEP BOUNDS FLOW TREATED AS SOURCE/SINK TERM
FACE 6 OF (J,I,K) =    4,  59,  15 IS NOT A BOUNDARY FACE.  HEAD DEP BOUNDS FLOW TREATED AS SOURCE/SINK TERM
FACE 6 OF (J,I,K) =    4,  59,  16 IS NOT A BOUNDARY FACE.  HEAD DEP BOUNDS FLOW TREATED AS SOURCE/SINK TERM
FACE 6 OF (J,I,K) =    3,  59,   2 IS NOT A BOUNDARY FACE.  HEAD DEP BOUNDS FLOW TREATED AS SOURCE/SINK TERM
FACE 6 OF (J,I,K) =    3,  59,   3 IS NOT A BOUNDARY FACE.  HEAD DEP BOUNDS FLOW TREATED AS SOURCE/SINK TERM
FACE 6 OF (J,I,K) =    3,  59,   4 IS NOT A BOUNDARY FACE.  HEAD DEP BOUNDS FLOW TREATED AS SOURCE/SINK TERM
FACE 6 OF (J,I,K) =    3,  59,   5 IS NOT A BOUNDARY FACE.  HEAD DEP BOUNDS FLOW TREATED AS SOURCE/SINK TERM
FACE 6 OF (J,I,K) =    3,  59,   6 IS NOT A BOUNDARY FACE.  HEAD DEP BOUNDS FLOW TREATED AS SOURCE/SINK TERM
FACE 6 OF (J,I,K) =    3,  59,   7 IS NOT A BOUNDARY FACE.  HEAD DEP BOUNDS FLOW TREATED AS SOURCE/SINK TERM
FACE 6 OF (J,I,K) =    3,  59,   8 IS NOT A BOUNDARY FACE.  HEAD DEP BOUNDS FLOW TREATED AS SOURCE/SINK TERM
FACE 6 OF (J,I,K) =    3,  59,   9 IS NOT A BOUNDARY FACE.  HEAD DEP BOUNDS FLOW TREATED AS SOURCE/SINK TERM
FACE 6 OF (J,I,K) =    3,  59,  10 IS NOT A BOUNDARY FACE.  HEAD DEP BOUNDS FLOW TREATED AS SOURCE/SINK TERM
FACE 6 OF (J,I,K) =    3,  59,  11 IS NOT A BOUNDARY FACE.  HEAD DEP BOUNDS FLOW TREATED AS SOURCE/SINK TERM
FACE 6 OF (J,I,K) =    3,  59,  12 IS NOT A BOUNDARY FACE.  HEAD DEP BOUNDS FLOW TREATED AS SOURCE/SINK TERM
FACE 6 OF (J,I,K) =    3,  59,  13 IS NOT A BOUNDARY FACE.  HEAD DEP BOUNDS FLOW TREATED AS SOURCE/SINK TERM
FACE 6 OF (J,I,K) =    3,  59,  14 IS NOT A BOUNDARY FACE.  HEAD DEP BOUNDS FLOW TREATED AS SOURCE/SINK TERM
FACE 6 OF (J,I,K) =    3,  59,  15 IS NOT A BOUNDARY FACE.  HEAD DEP BOUNDS FLOW TREATED AS SOURCE/SINK TERM
FACE 6 OF (J,I,K) =    3,  59,  16 IS NOT A BOUNDARY FACE.  HEAD DEP BOUNDS FLOW TREATED AS SOURCE/SINK TERM
FACE 6 OF (J,I,K) =    3,  60,   2 IS NOT A BOUNDARY FACE.  HEAD DEP BOUNDS FLOW TREATED AS SOURCE/SINK TERM
FACE 6 OF (J,I,K) =    3,  60,   3 IS NOT A BOUNDARY FACE.  HEAD DEP BOUNDS FLOW TREATED AS SOURCE/SINK TERM
FACE 6 OF (J,I,K) =    3,  60,   4 IS NOT A BOUNDARY FACE.  HEAD DEP BOUNDS FLOW TREATED AS SOURCE/SINK TERM
FACE 6 OF (J,I,K) =    3,  60,   5 IS NOT A BOUNDARY FACE.  HEAD DEP BOUNDS FLOW TREATED AS SOURCE/SINK TERM
FACE 6 OF (J,I,K) =    3,  60,   6 IS NOT A BOUNDARY FACE.  HEAD DEP BOUNDS FLOW TREATED AS SOURCE/SINK TERM
FACE 6 OF (J,I,K) =    3,  60,   7 IS NOT A BOUNDARY FACE.  HEAD DEP BOUNDS FLOW TREATED AS SOURCE/SINK TERM
FACE 6 OF (J,I,K) =    3,  60,   8 IS NOT A BOUNDARY FACE.  HEAD DEP BOUNDS FLOW TREATED AS SOURCE/SINK TERM
FACE 6 OF (J,I,K) =    3,  60,   9 IS NOT A BOUNDARY FACE.  HEAD DEP BOUNDS FLOW TREATED AS SOURCE/SINK TERM
FACE 6 OF (J,I,K) =    3,  60,  10 IS NOT A BOUNDARY FACE.  HEAD DEP BOUNDS FLOW TREATED AS SOURCE/SINK TERM
FACE 6 OF (J,I,K) =    3,  60,  11 IS NOT A BOUNDARY FACE.  HEAD DEP BOUNDS FLOW TREATED AS SOURCE/SINK TERM
FACE 6 OF (J,I,K) =    3,  60,  12 IS NOT A BOUNDARY FACE.  HEAD DEP BOUNDS FLOW TREATED AS SOURCE/SINK TERM
FACE 6 OF (J,I,K) =    3,  60,  13 IS NOT A BOUNDARY FACE.  HEAD DEP BOUNDS FLOW TREATED AS SOURCE/SINK TERM
FACE 6 OF (J,I,K) =    3,  60,  14 IS NOT A BOUNDARY FACE.  HEAD DEP BOUNDS FLOW TREATED AS SOURCE/SINK TERM
FACE 6 OF (J,I,K) =    3,  60,  15 IS NOT A BOUNDARY FACE.  HEAD DEP BOUNDS FLOW TREATED AS SOURCE/SINK TERM
FACE 6 OF (J,I,K) =    3,  60,  16 IS NOT A BOUNDARY FACE.  HEAD DEP BOUNDS FLOW TREATED AS SOURCE/SINK TERM
FACE 6 OF (J,I,K) =    3,  61,   2 IS NOT A BOUNDARY FACE.  HEAD DEP BOUNDS FLOW TREATED AS SOURCE/SINK TERM
FACE 6 OF (J,I,K) =    3,  61,   3 IS NOT A BOUNDARY FACE.  HEAD DEP BOUNDS FLOW TREATED AS SOURCE/SINK TERM
FACE 6 OF (J,I,K) =    3,  61,   4 IS NOT A BOUNDARY FACE.  HEAD DEP BOUNDS FLOW TREATED AS SOURCE/SINK TERM
FACE 6 OF (J,I,K) =    3,  61,   5 IS NOT A BOUNDARY FACE.  HEAD DEP BOUNDS FLOW TREATED AS SOURCE/SINK TERM
FACE 6 OF (J,I,K) =    3,  61,   6 IS NOT A BOUNDARY FACE.  HEAD DEP BOUNDS FLOW TREATED AS SOURCE/SINK TERM
FACE 6 OF (J,I,K) =    3,  61,   7 IS NOT A BOUNDARY FACE.  HEAD DEP BOUNDS FLOW TREATED AS SOURCE/SINK TERM
FACE 6 OF (J,I,K) =    3,  61,   8 IS NOT A BOUNDARY FACE.  HEAD DEP BOUNDS FLOW TREATED AS SOURCE/SINK TERM
FACE 6 OF (J,I,K) =    3,  61,   9 IS NOT A BOUNDARY FACE.  HEAD DEP BOUNDS FLOW TREATED AS SOURCE/SINK TERM
FACE 6 OF (J,I,K) =    3,  61,  10 IS NOT A BOUNDARY FACE.  HEAD DEP BOUNDS FLOW TREATED AS SOURCE/SINK TERM
FACE 6 OF (J,I,K) =    3,  61,  11 IS NOT A BOUNDARY FACE.  HEAD DEP BOUNDS FLOW TREATED AS SOURCE/SINK TERM
FACE 6 OF (J,I,K) =    3,  61,  12 IS NOT A BOUNDARY FACE.  HEAD DEP BOUNDS FLOW TREATED AS SOURCE/SINK TERM
FACE 6 OF (J,I,K) =    3,  61,  13 IS NOT A BOUNDARY FACE.  HEAD DEP BOUNDS FLOW TREATED AS SOURCE/SINK TERM
FACE 6 OF (J,I,K) =    3,  61,  14 IS NOT A BOUNDARY FACE.  HEAD DEP BOUNDS FLOW TREATED AS SOURCE/SINK TERM
FACE 6 OF (J,I,K) =    3,  61,  15 IS NOT A BOUNDARY FACE.  HEAD DEP BOUNDS FLOW TREATED AS SOURCE/SINK TERM
FACE 6 OF (J,I,K) =    3,  61,  16 IS NOT A BOUNDARY FACE.  HEAD DEP BOUNDS FLOW TREATED AS SOURCE/SINK TERM
FACE 6 OF (J,I,K) =    2,  61,   2 IS NOT A BOUNDARY FACE.  HEAD DEP BOUNDS FLOW TREATED AS SOURCE/SINK TERM
FACE 6 OF (J,I,K) =    2,  61,   3 IS NOT A BOUNDARY FACE.  HEAD DEP BOUNDS FLOW TREATED AS SOURCE/SINK TERM
FACE 6 OF (J,I,K) =    2,  61,   4 IS NOT A BOUNDARY FACE.  HEAD DEP BOUNDS FLOW TREATED AS SOURCE/SINK TERM
FACE 6 OF (J,I,K) =    2,  61,   5 IS NOT A BOUNDARY FACE.  HEAD DEP BOUNDS FLOW TREATED AS SOURCE/SINK TERM
FACE 6 OF (J,I,K) =    2,  61,   6 IS NOT A BOUNDARY FACE.  HEAD DEP BOUNDS FLOW TREATED AS SOURCE/SINK TERM
FACE 6 OF (J,I,K) =    2,  61,   7 IS NOT A BOUNDARY FACE.  HEAD DEP BOUNDS FLOW TREATED AS SOURCE/SINK TERM
FACE 6 OF (J,I,K) =    2,  61,   8 IS NOT A BOUNDARY FACE.  HEAD DEP BOUNDS FLOW TREATED AS SOURCE/SINK TERM
FACE 6 OF (J,I,K) =    2,  61,   9 IS NOT A BOUNDARY FACE.  HEAD DEP BOUNDS FLOW TREATED AS SOURCE/SINK TERM
FACE 6 OF (J,I,K) =    2,  61,  10 IS NOT A BOUNDARY FACE.  HEAD DEP BOUNDS FLOW TREATED AS SOURCE/SINK TERM
FACE 6 OF (J,I,K) =    2,  61,  11 IS NOT A BOUNDARY FACE.  HEAD DEP BOUNDS FLOW TREATED AS SOURCE/SINK TERM
FACE 6 OF (J,I,K) =    2,  61,  12 IS NOT A BOUNDARY FACE.  HEAD DEP BOUNDS FLOW TREATED AS SOURCE/SINK TERM
FACE 6 OF (J,I,K) =    2,  61,  13 IS NOT A BOUNDARY FACE.  HEAD DEP BOUNDS FLOW TREATED AS SOURCE/SINK TERM
FACE 6 OF (J,I,K) =    2,  61,  14 IS NOT A BOUNDARY FACE.  HEAD DEP BOUNDS FLOW TREATED AS SOURCE/SINK TERM
FACE 6 OF (J,I,K) =    2,  61,  15 IS NOT A BOUNDARY FACE.  HEAD DEP BOUNDS FLOW TREATED AS SOURCE/SINK TERM
FACE 6 OF (J,I,K) =    2,  61,  16 IS NOT A BOUNDARY FACE.  HEAD DEP BOUNDS FLOW TREATED AS SOURCE/SINK TERM
FACE 6 OF (J,I,K) =    2,  62,   2 IS NOT A BOUNDARY FACE.  HEAD DEP BOUNDS FLOW TREATED AS SOURCE/SINK TERM
FACE 6 OF (J,I,K) =    2,  62,   3 IS NOT A BOUNDARY FACE.  HEAD DEP BOUNDS FLOW TREATED AS SOURCE/SINK TERM
FACE 6 OF (J,I,K) =    2,  62,   4 IS NOT A BOUNDARY FACE.  HEAD DEP BOUNDS FLOW TREATED AS SOURCE/SINK TERM
FACE 6 OF (J,I,K) =    2,  62,   5 IS NOT A BOUNDARY FACE.  HEAD DEP BOUNDS FLOW TREATED AS SOURCE/SINK TERM
FACE 6 OF (J,I,K) =    2,  62,   6 IS NOT A BOUNDARY FACE.  HEAD DEP BOUNDS FLOW TREATED AS SOURCE/SINK TERM
FACE 6 OF (J,I,K) =    2,  62,   7 IS NOT A BOUNDARY FACE.  HEAD DEP BOUNDS FLOW TREATED AS SOURCE/SINK TERM
FACE 6 OF (J,I,K) =    2,  62,   8 IS NOT A BOUNDARY FACE.  HEAD DEP BOUNDS FLOW TREATED AS SOURCE/SINK TERM
FACE 6 OF (J,I,K) =    2,  62,   9 IS NOT A BOUNDARY FACE.  HEAD DEP BOUNDS FLOW TREATED AS SOURCE/SINK TERM
FACE 6 OF (J,I,K) =    2,  62,  10 IS NOT A BOUNDARY FACE.  HEAD DEP BOUNDS FLOW TREATED AS SOURCE/SINK TERM
FACE 6 OF (J,I,K) =    2,  62,  11 IS NOT A BOUNDARY FACE.  HEAD DEP BOUNDS FLOW TREATED AS SOURCE/SINK TERM
FACE 6 OF (J,I,K) =    2,  62,  12 IS NOT A BOUNDARY FACE.  HEAD DEP BOUNDS FLOW TREATED AS SOURCE/SINK TERM
FACE 6 OF (J,I,K) =    2,  62,  13 IS NOT A BOUNDARY FACE.  HEAD DEP BOUNDS FLOW TREATED AS SOURCE/SINK TERM
FACE 6 OF (J,I,K) =    2,  62,  14 IS NOT A BOUNDARY FACE.  HEAD DEP BOUNDS FLOW TREATED AS SOURCE/SINK TERM
FACE 6 OF (J,I,K) =    2,  62,  15 IS NOT A BOUNDARY FACE.  HEAD DEP BOUNDS FLOW TREATED AS SOURCE/SINK TERM
FACE 6 OF (J,I,K) =    2,  62,  16 IS NOT A BOUNDARY FACE.  HEAD DEP BOUNDS FLOW TREATED AS SOURCE/SINK TERM
FACE 6 OF (J,I,K) =    2,  63,   2 IS NOT A BOUNDARY FACE.  HEAD DEP BOUNDS FLOW TREATED AS SOURCE/SINK TERM
FACE 6 OF (J,I,K) =    2,  63,   3 IS NOT A BOUNDARY FACE.  HEAD DEP BOUNDS FLOW TREATED AS SOURCE/SINK TERM
FACE 6 OF (J,I,K) =    2,  63,   4 IS NOT A BOUNDARY FACE.  HEAD DEP BOUNDS FLOW TREATED AS SOURCE/SINK TERM
FACE 6 OF (J,I,K) =    2,  63,   5 IS NOT A BOUNDARY FACE.  HEAD DEP BOUNDS FLOW TREATED AS SOURCE/SINK TERM
FACE 6 OF (J,I,K) =    2,  63,   6 IS NOT A BOUNDARY FACE.  HEAD DEP BOUNDS FLOW TREATED AS SOURCE/SINK TERM
FACE 6 OF (J,I,K) =    2,  63,   7 IS NOT A BOUNDARY FACE.  HEAD DEP BOUNDS FLOW TREATED AS SOURCE/SINK TERM
FACE 6 OF (J,I,K) =    2,  63,   8 IS NOT A BOUNDARY FACE.  HEAD DEP BOUNDS FLOW TREATED AS SOURCE/SINK TERM
FACE 6 OF (J,I,K) =    2,  63,   9 IS NOT A BOUNDARY FACE.  HEAD DEP BOUNDS FLOW TREATED AS SOURCE/SINK TERM
FACE 6 OF (J,I,K) =    2,  63,  10 IS NOT A BOUNDARY FACE.  HEAD DEP BOUNDS FLOW TREATED AS SOURCE/SINK TERM
FACE 6 OF (J,I,K) =    2,  63,  11 IS NOT A BOUNDARY FACE.  HEAD DEP BOUNDS FLOW TREATED AS SOURCE/SINK TERM
FACE 6 OF (J,I,K) =    2,  63,  12 IS NOT A BOUNDARY FACE.  HEAD DEP BOUNDS FLOW TREATED AS SOURCE/SINK TERM
FACE 6 OF (J,I,K) =    2,  63,  13 IS NOT A BOUNDARY FACE.  HEAD DEP BOUNDS FLOW TREATED AS SOURCE/SINK TERM
FACE 6 OF (J,I,K) =    2,  63,  14 IS NOT A BOUNDARY FACE.  HEAD DEP BOUNDS FLOW TREATED AS SOURCE/SINK TERM
FACE 6 OF (J,I,K) =    2,  63,  15 IS NOT A BOUNDARY FACE.  HEAD DEP BOUNDS FLOW TREATED AS SOURCE/SINK TERM
FACE 6 OF (J,I,K) =    2,  63,  16 IS NOT A BOUNDARY FACE.  HEAD DEP BOUNDS FLOW TREATED AS SOURCE/SINK TERM
FACE 6 OF (J,I,K) =    1,  63,   2 IS NOT A BOUNDARY FACE.  HEAD DEP BOUNDS FLOW TREATED AS SOURCE/SINK TERM
FACE 6 OF (J,I,K) =    1,  63,   3 IS NOT A BOUNDARY FACE.  HEAD DEP BOUNDS FLOW TREATED AS SOURCE/SINK TERM
FACE 6 OF (J,I,K) =    1,  63,   4 IS NOT A BOUNDARY FACE.  HEAD DEP BOUNDS FLOW TREATED AS SOURCE/SINK TERM
FACE 6 OF (J,I,K) =    1,  63,   5 IS NOT A BOUNDARY FACE.  HEAD DEP BOUNDS FLOW TREATED AS SOURCE/SINK TERM
FACE 6 OF (J,I,K) =    1,  63,   6 IS NOT A BOUNDARY FACE.  HEAD DEP BOUNDS FLOW TREATED AS SOURCE/SINK TERM
FACE 6 OF (J,I,K) =    1,  63,   7 IS NOT A BOUNDARY FACE.  HEAD DEP BOUNDS FLOW TREATED AS SOURCE/SINK TERM
FACE 6 OF (J,I,K) =    1,  63,   8 IS NOT A BOUNDARY FACE.  HEAD DEP BOUNDS FLOW TREATED AS SOURCE/SINK TERM
FACE 6 OF (J,I,K) =    1,  63,   9 IS NOT A BOUNDARY FACE.  HEAD DEP BOUNDS FLOW TREATED AS SOURCE/SINK TERM
FACE 6 OF (J,I,K) =    1,  63,  10 IS NOT A BOUNDARY FACE.  HEAD DEP BOUNDS FLOW TREATED AS SOURCE/SINK TERM
FACE 6 OF (J,I,K) =    1,  63,  11 IS NOT A BOUNDARY FACE.  HEAD DEP BOUNDS FLOW TREATED AS SOURCE/SINK TERM
FACE 6 OF (J,I,K) =    1,  63,  12 IS NOT A BOUNDARY FACE.  HEAD DEP BOUNDS FLOW TREATED AS SOURCE/SINK TERM
FACE 6 OF (J,I,K) =    1,  63,  13 IS NOT A BOUNDARY FACE.  HEAD DEP BOUNDS FLOW TREATED AS SOURCE/SINK TERM
FACE 6 OF (J,I,K) =    1,  63,  14 IS NOT A BOUNDARY FACE.  HEAD DEP BOUNDS FLOW TREATED AS SOURCE/SINK TERM
FACE 6 OF (J,I,K) =    1,  63,  15 IS NOT A BOUNDARY FACE.  HEAD DEP BOUNDS FLOW TREATED AS SOURCE/SINK TERM
FACE 6 OF (J,I,K) =    1,  63,  16 IS NOT A BOUNDARY FACE.  HEAD DEP BOUNDS FLOW TREATED AS SOURCE/SINK TERM
FACE 6 OF (J,I,K) =    1,  64,   2 IS NOT A BOUNDARY FACE.  HEAD DEP BOUNDS FLOW TREATED AS SOURCE/SINK TERM
FACE 6 OF (J,I,K) =    1,  64,   3 IS NOT A BOUNDARY FACE.  HEAD DEP BOUNDS FLOW TREATED AS SOURCE/SINK TERM
FACE 6 OF (J,I,K) =    1,  64,   4 IS NOT A BOUNDARY FACE.  HEAD DEP BOUNDS FLOW TREATED AS SOURCE/SINK TERM
FACE 6 OF (J,I,K) =    1,  64,   5 IS NOT A BOUNDARY FACE.  HEAD DEP BOUNDS FLOW TREATED AS SOURCE/SINK TERM
FACE 6 OF (J,I,K) =    1,  64,   6 IS NOT A BOUNDARY FACE.  HEAD DEP BOUNDS FLOW TREATED AS SOURCE/SINK TERM
FACE 6 OF (J,I,K) =    1,  64,   7 IS NOT A BOUNDARY FACE.  HEAD DEP BOUNDS FLOW TREATED AS SOURCE/SINK TERM
FACE 6 OF (J,I,K) =    1,  64,   8 IS NOT A BOUNDARY FACE.  HEAD DEP BOUNDS FLOW TREATED AS SOURCE/SINK TERM
FACE 6 OF (J,I,K) =    1,  64,   9 IS NOT A BOUNDARY FACE.  HEAD DEP BOUNDS FLOW TREATED AS SOURCE/SINK TERM
FACE 6 OF (J,I,K) =    1,  64,  10 IS NOT A BOUNDARY FACE.  HEAD DEP BOUNDS FLOW TREATED AS SOURCE/SINK TERM
FACE 6 OF (J,I,K) =    1,  64,  11 IS NOT A BOUNDARY FACE.  HEAD DEP BOUNDS FLOW TREATED AS SOURCE/SINK TERM
FACE 6 OF (J,I,K) =    1,  64,  12 IS NOT A BOUNDARY FACE.  HEAD DEP BOUNDS FLOW TREATED AS SOURCE/SINK TERM
FACE 6 OF (J,I,K) =    1,  64,  13 IS NOT A BOUNDARY FACE.  HEAD DEP BOUNDS FLOW TREATED AS SOURCE/SINK TERM
FACE 6 OF (J,I,K) =    1,  64,  14 IS NOT A BOUNDARY FACE.  HEAD DEP BOUNDS FLOW TREATED AS SOURCE/SINK TERM
FACE 6 OF (J,I,K) =    1,  64,  15 IS NOT A BOUNDARY FACE.  HEAD DEP BOUNDS FLOW TREATED AS SOURCE/SINK TERM
FACE 6 OF (J,I,K) =    1,  64,  16 IS NOT A BOUNDARY FACE.  HEAD DEP BOUNDS FLOW TREATED AS SOURCE/SINK TERM
FACE 6 OF (J,I,K) =    1,  65,   2 IS NOT A BOUNDARY FACE.  HEAD DEP BOUNDS FLOW TREATED AS SOURCE/SINK TERM
FACE 6 OF (J,I,K) =    1,  65,   3 IS NOT A BOUNDARY FACE.  HEAD DEP BOUNDS FLOW TREATED AS SOURCE/SINK TERM
FACE 6 OF (J,I,K) =    1,  65,   4 IS NOT A BOUNDARY FACE.  HEAD DEP BOUNDS FLOW TREATED AS SOURCE/SINK TERM
FACE 6 OF (J,I,K) =    1,  65,   5 IS NOT A BOUNDARY FACE.  HEAD DEP BOUNDS FLOW TREATED AS SOURCE/SINK TERM
FACE 6 OF (J,I,K) =    1,  65,   6 IS NOT A BOUNDARY FACE.  HEAD DEP BOUNDS FLOW TREATED AS SOURCE/SINK TERM
FACE 6 OF (J,I,K) =    1,  65,   7 IS NOT A BOUNDARY FACE.  HEAD DEP BOUNDS FLOW TREATED AS SOURCE/SINK TERM
FACE 6 OF (J,I,K) =    1,  65,   8 IS NOT A BOUNDARY FACE.  HEAD DEP BOUNDS FLOW TREATED AS SOURCE/SINK TERM
FACE 6 OF (J,I,K) =    1,  65,   9 IS NOT A BOUNDARY FACE.  HEAD DEP BOUNDS FLOW TREATED AS SOURCE/SINK TERM
FACE 6 OF (J,I,K) =    1,  65,  10 IS NOT A BOUNDARY FACE.  HEAD DEP BOUNDS FLOW TREATED AS SOURCE/SINK TERM
FACE 6 OF (J,I,K) =    1,  65,  11 IS NOT A BOUNDARY FACE.  HEAD DEP BOUNDS FLOW TREATED AS SOURCE/SINK TERM
FACE 6 OF (J,I,K) =    1,  65,  12 IS NOT A BOUNDARY FACE.  HEAD DEP BOUNDS FLOW TREATED AS SOURCE/SINK TERM
FACE 6 OF (J,I,K) =    1,  65,  13 IS NOT A BOUNDARY FACE.  HEAD DEP BOUNDS FLOW TREATED AS SOURCE/SINK TERM
FACE 6 OF (J,I,K) =    1,  65,  14 IS NOT A BOUNDARY FACE.  HEAD DEP BOUNDS FLOW TREATED AS SOURCE/SINK TERM
FACE 6 OF (J,I,K) =    1,  65,  15 IS NOT A BOUNDARY FACE.  HEAD DEP BOUNDS FLOW TREATED AS SOURCE/SINK TERM
FACE 6 OF (J,I,K) =    1,  65,  16 IS NOT A BOUNDARY FACE.  HEAD DEP BOUNDS FLOW TREATED AS SOURCE/SINK TERM
FACE 6 OF (J,I,K) =   14,  39,   2 IS NOT A BOUNDARY FACE.  HEAD DEP BOUNDS FLOW TREATED AS SOURCE/SINK TERM
FACE 6 OF (J,I,K) =   14,  39,   3 IS NOT A BOUNDARY FACE.  HEAD DEP BOUNDS FLOW TREATED AS SOURCE/SINK TERM
FACE 6 OF (J,I,K) =   14,  39,   4 IS NOT A BOUNDARY FACE.  HEAD DEP BOUNDS FLOW TREATED AS SOURCE/SINK TERM
FACE 6 OF (J,I,K) =   14,  39,   5 IS NOT A BOUNDARY FACE.  HEAD DEP BOUNDS FLOW TREATED AS SOURCE/SINK TERM
FACE 6 OF (J,I,K) =   14,  39,   6 IS NOT A BOUNDARY FACE.  HEAD DEP BOUNDS FLOW TREATED AS SOURCE/SINK TERM
FACE 6 OF (J,I,K) =   14,  39,   7 IS NOT A BOUNDARY FACE.  HEAD DEP BOUNDS FLOW TREATED AS SOURCE/SINK TERM
FACE 6 OF (J,I,K) =   14,  39,   8 IS NOT A BOUNDARY FACE.  HEAD DEP BOUNDS FLOW TREATED AS SOURCE/SINK TERM
FACE 6 OF (J,I,K) =   14,  39,   9 IS NOT A BOUNDARY FACE.  HEAD DEP BOUNDS FLOW TREATED AS SOURCE/SINK TERM
FACE 6 OF (J,I,K) =   14,  39,  10 IS NOT A BOUNDARY FACE.  HEAD DEP BOUNDS FLOW TREATED AS SOURCE/SINK TERM
FACE 6 OF (J,I,K) =   14,  39,  11 IS NOT A BOUNDARY FACE.  HEAD DEP BOUNDS FLOW TREATED AS SOURCE/SINK TERM
FACE 6 OF (J,I,K) =   14,  39,  12 IS NOT A BOUNDARY FACE.  HEAD DEP BOUNDS FLOW TREATED AS SOURCE/SINK TERM
FACE 6 OF (J,I,K) =   14,  39,  13 IS NOT A BOUNDARY FACE.  HEAD DEP BOUNDS FLOW TREATED AS SOURCE/SINK TERM
FACE 6 OF (J,I,K) =   14,  39,  14 IS NOT A BOUNDARY FACE.  HEAD DEP BOUNDS FLOW TREATED AS SOURCE/SINK TERM
FACE 6 OF (J,I,K) =   14,  39,  15 IS NOT A BOUNDARY FACE.  HEAD DEP BOUNDS FLOW TREATED AS SOURCE/SINK TERM
FACE 6 OF (J,I,K) =   14,  39,  16 IS NOT A BOUNDARY FACE.  HEAD DEP BOUNDS FLOW TREATED AS SOURCE/SINK TERM
FACE 6 OF (J,I,K) =   14,  40,   2 IS NOT A BOUNDARY FACE.  HEAD DEP BOUNDS FLOW TREATED AS SOURCE/SINK TERM
FACE 6 OF (J,I,K) =   14,  40,   3 IS NOT A BOUNDARY FACE.  HEAD DEP BOUNDS FLOW TREATED AS SOURCE/SINK TERM
FACE 6 OF (J,I,K) =   14,  40,   4 IS NOT A BOUNDARY FACE.  HEAD DEP BOUNDS FLOW TREATED AS SOURCE/SINK TERM
FACE 6 OF (J,I,K) =   14,  40,   5 IS NOT A BOUNDARY FACE.  HEAD DEP BOUNDS FLOW TREATED AS SOURCE/SINK TERM
FACE 6 OF (J,I,K) =   14,  40,   6 IS NOT A BOUNDARY FACE.  HEAD DEP BOUNDS FLOW TREATED AS SOURCE/SINK TERM
FACE 6 OF (J,I,K) =   14,  40,   7 IS NOT A BOUNDARY FACE.  HEAD DEP BOUNDS FLOW TREATED AS SOURCE/SINK TERM
FACE 6 OF (J,I,K) =   14,  40,   8 IS NOT A BOUNDARY FACE.  HEAD DEP BOUNDS FLOW TREATED AS SOURCE/SINK TERM
FACE 6 OF (J,I,K) =   14,  40,   9 IS NOT A BOUNDARY FACE.  HEAD DEP BOUNDS FLOW TREATED AS SOURCE/SINK TERM
FACE 6 OF (J,I,K) =   14,  40,  10 IS NOT A BOUNDARY FACE.  HEAD DEP BOUNDS FLOW TREATED AS SOURCE/SINK TERM
FACE 6 OF (J,I,K) =   14,  40,  11 IS NOT A BOUNDARY FACE.  HEAD DEP BOUNDS FLOW TREATED AS SOURCE/SINK TERM
FACE 6 OF (J,I,K) =   14,  40,  12 IS NOT A BOUNDARY FACE.  HEAD DEP BOUNDS FLOW TREATED AS SOURCE/SINK TERM
FACE 6 OF (J,I,K) =   14,  40,  13 IS NOT A BOUNDARY FACE.  HEAD DEP BOUNDS FLOW TREATED AS SOURCE/SINK TERM
FACE 6 OF (J,I,K) =   14,  40,  14 IS NOT A BOUNDARY FACE.  HEAD DEP BOUNDS FLOW TREATED AS SOURCE/SINK TERM
FACE 6 OF (J,I,K) =   14,  40,  15 IS NOT A BOUNDARY FACE.  HEAD DEP BOUNDS FLOW TREATED AS SOURCE/SINK TERM
FACE 6 OF (J,I,K) =   14,  40,  16 IS NOT A BOUNDARY FACE.  HEAD DEP BOUNDS FLOW TREATED AS SOURCE/SINK TERM
FACE 6 OF (J,I,K) =   13,  40,   2 IS NOT A BOUNDARY FACE.  HEAD DEP BOUNDS FLOW TREATED AS SOURCE/SINK TERM
FACE 6 OF (J,I,K) =   13,  40,   3 IS NOT A BOUNDARY FACE.  HEAD DEP BOUNDS FLOW TREATED AS SOURCE/SINK TERM
FACE 6 OF (J,I,K) =   13,  40,   4 IS NOT A BOUNDARY FACE.  HEAD DEP BOUNDS FLOW TREATED AS SOURCE/SINK TERM
FACE 6 OF (J,I,K) =   13,  40,   5 IS NOT A BOUNDARY FACE.  HEAD DEP BOUNDS FLOW TREATED AS SOURCE/SINK TERM
FACE 6 OF (J,I,K) =   13,  40,   6 IS NOT A BOUNDARY FACE.  HEAD DEP BOUNDS FLOW TREATED AS SOURCE/SINK TERM
FACE 6 OF (J,I,K) =   13,  40,   7 IS NOT A BOUNDARY FACE.  HEAD DEP BOUNDS FLOW TREATED AS SOURCE/SINK TERM
FACE 6 OF (J,I,K) =   13,  40,   8 IS NOT A BOUNDARY FACE.  HEAD DEP BOUNDS FLOW TREATED AS SOURCE/SINK TERM
FACE 6 OF (J,I,K) =   13,  40,   9 IS NOT A BOUNDARY FACE.  HEAD DEP BOUNDS FLOW TREATED AS SOURCE/SINK TERM
FACE 6 OF (J,I,K) =   13,  40,  10 IS NOT A BOUNDARY FACE.  HEAD DEP BOUNDS FLOW TREATED AS SOURCE/SINK TERM
FACE 6 OF (J,I,K) =   13,  40,  11 IS NOT A BOUNDARY FACE.  HEAD DEP BOUNDS FLOW TREATED AS SOURCE/SINK TERM
FACE 6 OF (J,I,K) =   13,  40,  12 IS NOT A BOUNDARY FACE.  HEAD DEP BOUNDS FLOW TREATED AS SOURCE/SINK TERM
FACE 6 OF (J,I,K) =   13,  40,  13 IS NOT A BOUNDARY FACE.  HEAD DEP BOUNDS FLOW TREATED AS SOURCE/SINK TERM
FACE 6 OF (J,I,K) =   13,  40,  14 IS NOT A BOUNDARY FACE.  HEAD DEP BOUNDS FLOW TREATED AS SOURCE/SINK TERM
FACE 6 OF (J,I,K) =   13,  40,  15 IS NOT A BOUNDARY FACE.  HEAD DEP BOUNDS FLOW TREATED AS SOURCE/SINK TERM
FACE 6 OF (J,I,K) =   13,  40,  16 IS NOT A BOUNDARY FACE.  HEAD DEP BOUNDS FLOW TREATED AS SOURCE/SINK TERM
FACE 6 OF (J,I,K) =   13,  41,   2 IS NOT A BOUNDARY FACE.  HEAD DEP BOUNDS FLOW TREATED AS SOURCE/SINK TERM
FACE 6 OF (J,I,K) =   13,  41,   3 IS NOT A BOUNDARY FACE.  HEAD DEP BOUNDS FLOW TREATED AS SOURCE/SINK TERM
FACE 6 OF (J,I,K) =   13,  41,   4 IS NOT A BOUNDARY FACE.  HEAD DEP BOUNDS FLOW TREATED AS SOURCE/SINK TERM
FACE 6 OF (J,I,K) =   13,  41,   5 IS NOT A BOUNDARY FACE.  HEAD DEP BOUNDS FLOW TREATED AS SOURCE/SINK TERM
FACE 6 OF (J,I,K) =   13,  41,   6 IS NOT A BOUNDARY FACE.  HEAD DEP BOUNDS FLOW TREATED AS SOURCE/SINK TERM
FACE 6 OF (J,I,K) =   13,  41,   7 IS NOT A BOUNDARY FACE.  HEAD DEP BOUNDS FLOW TREATED AS SOURCE/SINK TERM
FACE 6 OF (J,I,K) =   13,  41,   8 IS NOT A BOUNDARY FACE.  HEAD DEP BOUNDS FLOW TREATED AS SOURCE/SINK TERM
FACE 6 OF (J,I,K) =   13,  41,   9 IS NOT A BOUNDARY FACE.  HEAD DEP BOUNDS FLOW TREATED AS SOURCE/SINK TERM
FACE 6 OF (J,I,K) =   13,  41,  10 IS NOT A BOUNDARY FACE.  HEAD DEP BOUNDS FLOW TREATED AS SOURCE/SINK TERM
FACE 6 OF (J,I,K) =   13,  41,  11 IS NOT A BOUNDARY FACE.  HEAD DEP BOUNDS FLOW TREATED AS SOURCE/SINK TERM
FACE 6 OF (J,I,K) =   13,  41,  12 IS NOT A BOUNDARY FACE.  HEAD DEP BOUNDS FLOW TREATED AS SOURCE/SINK TERM
FACE 6 OF (J,I,K) =   13,  41,  13 IS NOT A BOUNDARY FACE.  HEAD DEP BOUNDS FLOW TREATED AS SOURCE/SINK TERM
FACE 6 OF (J,I,K) =   13,  41,  14 IS NOT A BOUNDARY FACE.  HEAD DEP BOUNDS FLOW TREATED AS SOURCE/SINK TERM
FACE 6 OF (J,I,K) =   13,  41,  15 IS NOT A BOUNDARY FACE.  HEAD DEP BOUNDS FLOW TREATED AS SOURCE/SINK TERM
FACE 6 OF (J,I,K) =   13,  41,  16 IS NOT A BOUNDARY FACE.  HEAD DEP BOUNDS FLOW TREATED AS SOURCE/SINK TERM
FACE 6 OF (J,I,K) =   13,  42,   2 IS NOT A BOUNDARY FACE.  HEAD DEP BOUNDS FLOW TREATED AS SOURCE/SINK TERM
FACE 6 OF (J,I,K) =   13,  42,   3 IS NOT A BOUNDARY FACE.  HEAD DEP BOUNDS FLOW TREATED AS SOURCE/SINK TERM
FACE 6 OF (J,I,K) =   13,  42,   4 IS NOT A BOUNDARY FACE.  HEAD DEP BOUNDS FLOW TREATED AS SOURCE/SINK TERM
FACE 6 OF (J,I,K) =   13,  42,   5 IS NOT A BOUNDARY FACE.  HEAD DEP BOUNDS FLOW TREATED AS SOURCE/SINK TERM
FACE 6 OF (J,I,K) =   13,  42,   6 IS NOT A BOUNDARY FACE.  HEAD DEP BOUNDS FLOW TREATED AS SOURCE/SINK TERM
FACE 6 OF (J,I,K) =   13,  42,   7 IS NOT A BOUNDARY FACE.  HEAD DEP BOUNDS FLOW TREATED AS SOURCE/SINK TERM
FACE 6 OF (J,I,K) =   13,  42,   8 IS NOT A BOUNDARY FACE.  HEAD DEP BOUNDS FLOW TREATED AS SOURCE/SINK TERM
FACE 6 OF (J,I,K) =   13,  42,   9 IS NOT A BOUNDARY FACE.  HEAD DEP BOUNDS FLOW TREATED AS SOURCE/SINK TERM
FACE 6 OF (J,I,K) =   13,  42,  10 IS NOT A BOUNDARY FACE.  HEAD DEP BOUNDS FLOW TREATED AS SOURCE/SINK TERM
FACE 6 OF (J,I,K) =   13,  42,  11 IS NOT A BOUNDARY FACE.  HEAD DEP BOUNDS FLOW TREATED AS SOURCE/SINK TERM
FACE 6 OF (J,I,K) =   13,  42,  12 IS NOT A BOUNDARY FACE.  HEAD DEP BOUNDS FLOW TREATED AS SOURCE/SINK TERM
FACE 6 OF (J,I,K) =   13,  42,  13 IS NOT A BOUNDARY FACE.  HEAD DEP BOUNDS FLOW TREATED AS SOURCE/SINK TERM
FACE 6 OF (J,I,K) =   13,  42,  14 IS NOT A BOUNDARY FACE.  HEAD DEP BOUNDS FLOW TREATED AS SOURCE/SINK TERM
FACE 6 OF (J,I,K) =   13,  42,  15 IS NOT A BOUNDARY FACE.  HEAD DEP BOUNDS FLOW TREATED AS SOURCE/SINK TERM
FACE 6 OF (J,I,K) =   13,  42,  16 IS NOT A BOUNDARY FACE.  HEAD DEP BOUNDS FLOW TREATED AS SOURCE/SINK TERM
FACE 6 OF (J,I,K) =   12,  42,   2 IS NOT A BOUNDARY FACE.  HEAD DEP BOUNDS FLOW TREATED AS SOURCE/SINK TERM
FACE 6 OF (J,I,K) =   12,  42,   3 IS NOT A BOUNDARY FACE.  HEAD DEP BOUNDS FLOW TREATED AS SOURCE/SINK TERM
FACE 6 OF (J,I,K) =   12,  42,   4 IS NOT A BOUNDARY FACE.  HEAD DEP BOUNDS FLOW TREATED AS SOURCE/SINK TERM
FACE 6 OF (J,I,K) =   12,  42,   5 IS NOT A BOUNDARY FACE.  HEAD DEP BOUNDS FLOW TREATED AS SOURCE/SINK TERM
FACE 6 OF (J,I,K) =   12,  42,   6 IS NOT A BOUNDARY FACE.  HEAD DEP BOUNDS FLOW TREATED AS SOURCE/SINK TERM
FACE 6 OF (J,I,K) =   12,  42,   7 IS NOT A BOUNDARY FACE.  HEAD DEP BOUNDS FLOW TREATED AS SOURCE/SINK TERM
FACE 6 OF (J,I,K) =   12,  42,   8 IS NOT A BOUNDARY FACE.  HEAD DEP BOUNDS FLOW TREATED AS SOURCE/SINK TERM
FACE 6 OF (J,I,K) =   12,  42,   9 IS NOT A BOUNDARY FACE.  HEAD DEP BOUNDS FLOW TREATED AS SOURCE/SINK TERM
FACE 6 OF (J,I,K) =   12,  42,  10 IS NOT A BOUNDARY FACE.  HEAD DEP BOUNDS FLOW TREATED AS SOURCE/SINK TERM
FACE 6 OF (J,I,K) =   12,  42,  11 IS NOT A BOUNDARY FACE.  HEAD DEP BOUNDS FLOW TREATED AS SOURCE/SINK TERM
FACE 6 OF (J,I,K) =   12,  42,  12 IS NOT A BOUNDARY FACE.  HEAD DEP BOUNDS FLOW TREATED AS SOURCE/SINK TERM
FACE 6 OF (J,I,K) =   12,  42,  13 IS NOT A BOUNDARY FACE.  HEAD DEP BOUNDS FLOW TREATED AS SOURCE/SINK TERM
FACE 6 OF (J,I,K) =   12,  42,  14 IS NOT A BOUNDARY FACE.  HEAD DEP BOUNDS FLOW TREATED AS SOURCE/SINK TERM
FACE 6 OF (J,I,K) =   12,  42,  15 IS NOT A BOUNDARY FACE.  HEAD DEP BOUNDS FLOW TREATED AS SOURCE/SINK TERM
FACE 6 OF (J,I,K) =   12,  42,  16 IS NOT A BOUNDARY FACE.  HEAD DEP BOUNDS FLOW TREATED AS SOURCE/SINK TERM
FACE 6 OF (J,I,K) =   12,  43,   2 IS NOT A BOUNDARY FACE.  HEAD DEP BOUNDS FLOW TREATED AS SOURCE/SINK TERM
FACE 6 OF (J,I,K) =   12,  43,   3 IS NOT A BOUNDARY FACE.  HEAD DEP BOUNDS FLOW TREATED AS SOURCE/SINK TERM
FACE 6 OF (J,I,K) =   12,  43,   4 IS NOT A BOUNDARY FACE.  HEAD DEP BOUNDS FLOW TREATED AS SOURCE/SINK TERM
FACE 6 OF (J,I,K) =   12,  43,   5 IS NOT A BOUNDARY FACE.  HEAD DEP BOUNDS FLOW TREATED AS SOURCE/SINK TERM
FACE 6 OF (J,I,K) =   12,  43,   6 IS NOT A BOUNDARY FACE.  HEAD DEP BOUNDS FLOW TREATED AS SOURCE/SINK TERM
FACE 6 OF (J,I,K) =   12,  43,   7 IS NOT A BOUNDARY FACE.  HEAD DEP BOUNDS FLOW TREATED AS SOURCE/SINK TERM
FACE 6 OF (J,I,K) =   12,  43,   8 IS NOT A BOUNDARY FACE.  HEAD DEP BOUNDS FLOW TREATED AS SOURCE/SINK TERM
FACE 6 OF (J,I,K) =   12,  43,   9 IS NOT A BOUNDARY FACE.  HEAD DEP BOUNDS FLOW TREATED AS SOURCE/SINK TERM
FACE 6 OF (J,I,K) =   12,  43,  10 IS NOT A BOUNDARY FACE.  HEAD DEP BOUNDS FLOW TREATED AS SOURCE/SINK TERM
FACE 6 OF (J,I,K) =   12,  43,  11 IS NOT A BOUNDARY FACE.  HEAD DEP BOUNDS FLOW TREATED AS SOURCE/SINK TERM
FACE 6 OF (J,I,K) =   12,  43,  12 IS NOT A BOUNDARY FACE.  HEAD DEP BOUNDS FLOW TREATED AS SOURCE/SINK TERM
FACE 6 OF (J,I,K) =   12,  43,  13 IS NOT A BOUNDARY FACE.  HEAD DEP BOUNDS FLOW TREATED AS SOURCE/SINK TERM
FACE 6 OF (J,I,K) =   12,  43,  14 IS NOT A BOUNDARY FACE.  HEAD DEP BOUNDS FLOW TREATED AS SOURCE/SINK TERM
FACE 6 OF (J,I,K) =   12,  43,  15 IS NOT A BOUNDARY FACE.  HEAD DEP BOUNDS FLOW TREATED AS SOURCE/SINK TERM
FACE 6 OF (J,I,K) =   12,  43,  16 IS NOT A BOUNDARY FACE.  HEAD DEP BOUNDS FLOW TREATED AS SOURCE/SINK TERM
FACE 6 OF (J,I,K) =   12,  44,   2 IS NOT A BOUNDARY FACE.  HEAD DEP BOUNDS FLOW TREATED AS SOURCE/SINK TERM
FACE 6 OF (J,I,K) =   12,  44,   3 IS NOT A BOUNDARY FACE.  HEAD DEP BOUNDS FLOW TREATED AS SOURCE/SINK TERM
FACE 6 OF (J,I,K) =   12,  44,   4 IS NOT A BOUNDARY FACE.  HEAD DEP BOUNDS FLOW TREATED AS SOURCE/SINK TERM
FACE 6 OF (J,I,K) =   12,  44,   5 IS NOT A BOUNDARY FACE.  HEAD DEP BOUNDS FLOW TREATED AS SOURCE/SINK TERM
FACE 6 OF (J,I,K) =   12,  44,   6 IS NOT A BOUNDARY FACE.  HEAD DEP BOUNDS FLOW TREATED AS SOURCE/SINK TERM
FACE 6 OF (J,I,K) =   12,  44,   7 IS NOT A BOUNDARY FACE.  HEAD DEP BOUNDS FLOW TREATED AS SOURCE/SINK TERM
FACE 6 OF (J,I,K) =   12,  44,   8 IS NOT A BOUNDARY FACE.  HEAD DEP BOUNDS FLOW TREATED AS SOURCE/SINK TERM
FACE 6 OF (J,I,K) =   12,  44,   9 IS NOT A BOUNDARY FACE.  HEAD DEP BOUNDS FLOW TREATED AS SOURCE/SINK TERM
FACE 6 OF (J,I,K) =   12,  44,  10 IS NOT A BOUNDARY FACE.  HEAD DEP BOUNDS FLOW TREATED AS SOURCE/SINK TERM
FACE 6 OF (J,I,K) =   12,  44,  11 IS NOT A BOUNDARY FACE.  HEAD DEP BOUNDS FLOW TREATED AS SOURCE/SINK TERM
FACE 6 OF (J,I,K) =   12,  44,  12 IS NOT A BOUNDARY FACE.  HEAD DEP BOUNDS FLOW TREATED AS SOURCE/SINK TERM
FACE 6 OF (J,I,K) =   12,  44,  13 IS NOT A BOUNDARY FACE.  HEAD DEP BOUNDS FLOW TREATED AS SOURCE/SINK TERM
FACE 6 OF (J,I,K) =   12,  44,  14 IS NOT A BOUNDARY FACE.  HEAD DEP BOUNDS FLOW TREATED AS SOURCE/SINK TERM
FACE 6 OF (J,I,K) =   12,  44,  15 IS NOT A BOUNDARY FACE.  HEAD DEP BOUNDS FLOW TREATED AS SOURCE/SINK TERM
FACE 6 OF (J,I,K) =   12,  44,  16 IS NOT A BOUNDARY FACE.  HEAD DEP BOUNDS FLOW TREATED AS SOURCE/SINK TERM
FACE 6 OF (J,I,K) =   11,  44,   2 IS NOT A BOUNDARY FACE.  HEAD DEP BOUNDS FLOW TREATED AS SOURCE/SINK TERM
FACE 6 OF (J,I,K) =   11,  44,   3 IS NOT A BOUNDARY FACE.  HEAD DEP BOUNDS FLOW TREATED AS SOURCE/SINK TERM
FACE 6 OF (J,I,K) =   11,  44,   4 IS NOT A BOUNDARY FACE.  HEAD DEP BOUNDS FLOW TREATED AS SOURCE/SINK TERM
FACE 6 OF (J,I,K) =   11,  44,   5 IS NOT A BOUNDARY FACE.  HEAD DEP BOUNDS FLOW TREATED AS SOURCE/SINK TERM
FACE 6 OF (J,I,K) =   11,  44,   6 IS NOT A BOUNDARY FACE.  HEAD DEP BOUNDS FLOW TREATED AS SOURCE/SINK TERM
FACE 6 OF (J,I,K) =   11,  44,   7 IS NOT A BOUNDARY FACE.  HEAD DEP BOUNDS FLOW TREATED AS SOURCE/SINK TERM
FACE 6 OF (J,I,K) =   11,  44,   8 IS NOT A BOUNDARY FACE.  HEAD DEP BOUNDS FLOW TREATED AS SOURCE/SINK TERM
FACE 6 OF (J,I,K) =   11,  44,   9 IS NOT A BOUNDARY FACE.  HEAD DEP BOUNDS FLOW TREATED AS SOURCE/SINK TERM
FACE 6 OF (J,I,K) =   11,  44,  10 IS NOT A BOUNDARY FACE.  HEAD DEP BOUNDS FLOW TREATED AS SOURCE/SINK TERM
FACE 6 OF (J,I,K) =   11,  44,  11 IS NOT A BOUNDARY FACE.  HEAD DEP BOUNDS FLOW TREATED AS SOURCE/SINK TERM
FACE 6 OF (J,I,K) =   11,  44,  12 IS NOT A BOUNDARY FACE.  HEAD DEP BOUNDS FLOW TREATED AS SOURCE/SINK TERM
FACE 6 OF (J,I,K) =   11,  44,  13 IS NOT A BOUNDARY FACE.  HEAD DEP BOUNDS FLOW TREATED AS SOURCE/SINK TERM
FACE 6 OF (J,I,K) =   11,  44,  14 IS NOT A BOUNDARY FACE.  HEAD DEP BOUNDS FLOW TREATED AS SOURCE/SINK TERM
FACE 6 OF (J,I,K) =   11,  44,  15 IS NOT A BOUNDARY FACE.  HEAD DEP BOUNDS FLOW TREATED AS SOURCE/SINK TERM
FACE 6 OF (J,I,K) =   11,  44,  16 IS NOT A BOUNDARY FACE.  HEAD DEP BOUNDS FLOW TREATED AS SOURCE/SINK TERM
FACE 6 OF (J,I,K) =   11,  45,   2 IS NOT A BOUNDARY FACE.  HEAD DEP BOUNDS FLOW TREATED AS SOURCE/SINK TERM
FACE 6 OF (J,I,K) =   11,  45,   3 IS NOT A BOUNDARY FACE.  HEAD DEP BOUNDS FLOW TREATED AS SOURCE/SINK TERM
FACE 6 OF (J,I,K) =   11,  45,   4 IS NOT A BOUNDARY FACE.  HEAD DEP BOUNDS FLOW TREATED AS SOURCE/SINK TERM
FACE 6 OF (J,I,K) =   11,  45,   5 IS NOT A BOUNDARY FACE.  HEAD DEP BOUNDS FLOW TREATED AS SOURCE/SINK TERM
FACE 6 OF (J,I,K) =   11,  45,   6 IS NOT A BOUNDARY FACE.  HEAD DEP BOUNDS FLOW TREATED AS SOURCE/SINK TERM
FACE 6 OF (J,I,K) =   11,  45,   7 IS NOT A BOUNDARY FACE.  HEAD DEP BOUNDS FLOW TREATED AS SOURCE/SINK TERM
FACE 6 OF (J,I,K) =   11,  45,   8 IS NOT A BOUNDARY FACE.  HEAD DEP BOUNDS FLOW TREATED AS SOURCE/SINK TERM
FACE 6 OF (J,I,K) =   11,  45,   9 IS NOT A BOUNDARY FACE.  HEAD DEP BOUNDS FLOW TREATED AS SOURCE/SINK TERM
FACE 6 OF (J,I,K) =   11,  45,  10 IS NOT A BOUNDARY FACE.  HEAD DEP BOUNDS FLOW TREATED AS SOURCE/SINK TERM
FACE 6 OF (J,I,K) =   11,  45,  11 IS NOT A BOUNDARY FACE.  HEAD DEP BOUNDS FLOW TREATED AS SOURCE/SINK TERM
FACE 6 OF (J,I,K) =   11,  45,  12 IS NOT A BOUNDARY FACE.  HEAD DEP BOUNDS FLOW TREATED AS SOURCE/SINK TERM
FACE 6 OF (J,I,K) =   11,  45,  13 IS NOT A BOUNDARY FACE.  HEAD DEP BOUNDS FLOW TREATED AS SOURCE/SINK TERM
FACE 6 OF (J,I,K) =   11,  45,  14 IS NOT A BOUNDARY FACE.  HEAD DEP BOUNDS FLOW TREATED AS SOURCE/SINK TERM
FACE 6 OF (J,I,K) =   11,  45,  15 IS NOT A BOUNDARY FACE.  HEAD DEP BOUNDS FLOW TREATED AS SOURCE/SINK TERM
FACE 6 OF (J,I,K) =   11,  45,  16 IS NOT A BOUNDARY FACE.  HEAD DEP BOUNDS FLOW TREATED AS SOURCE/SINK TERM
FACE 6 OF (J,I,K) =   11,  46,   2 IS NOT A BOUNDARY FACE.  HEAD DEP BOUNDS FLOW TREATED AS SOURCE/SINK TERM
FACE 6 OF (J,I,K) =   11,  46,   3 IS NOT A BOUNDARY FACE.  HEAD DEP BOUNDS FLOW TREATED AS SOURCE/SINK TERM
FACE 6 OF (J,I,K) =   11,  46,   4 IS NOT A BOUNDARY FACE.  HEAD DEP BOUNDS FLOW TREATED AS SOURCE/SINK TERM
FACE 6 OF (J,I,K) =   11,  46,   5 IS NOT A BOUNDARY FACE.  HEAD DEP BOUNDS FLOW TREATED AS SOURCE/SINK TERM
FACE 6 OF (J,I,K) =   11,  46,   6 IS NOT A BOUNDARY FACE.  HEAD DEP BOUNDS FLOW TREATED AS SOURCE/SINK TERM
FACE 6 OF (J,I,K) =   11,  46,   7 IS NOT A BOUNDARY FACE.  HEAD DEP BOUNDS FLOW TREATED AS SOURCE/SINK TERM
FACE 6 OF (J,I,K) =   11,  46,   8 IS NOT A BOUNDARY FACE.  HEAD DEP BOUNDS FLOW TREATED AS SOURCE/SINK TERM
FACE 6 OF (J,I,K) =   11,  46,   9 IS NOT A BOUNDARY FACE.  HEAD DEP BOUNDS FLOW TREATED AS SOURCE/SINK TERM
FACE 6 OF (J,I,K) =   11,  46,  10 IS NOT A BOUNDARY FACE.  HEAD DEP BOUNDS FLOW TREATED AS SOURCE/SINK TERM
FACE 6 OF (J,I,K) =   11,  46,  11 IS NOT A BOUNDARY FACE.  HEAD DEP BOUNDS FLOW TREATED AS SOURCE/SINK TERM
FACE 6 OF (J,I,K) =   11,  46,  12 IS NOT A BOUNDARY FACE.  HEAD DEP BOUNDS FLOW TREATED AS SOURCE/SINK TERM
FACE 6 OF (J,I,K) =   11,  46,  13 IS NOT A BOUNDARY FACE.  HEAD DEP BOUNDS FLOW TREATED AS SOURCE/SINK TERM
FACE 6 OF (J,I,K) =   11,  46,  14 IS NOT A BOUNDARY FACE.  HEAD DEP BOUNDS FLOW TREATED AS SOURCE/SINK TERM
FACE 6 OF (J,I,K) =   11,  46,  15 IS NOT A BOUNDARY FACE.  HEAD DEP BOUNDS FLOW TREATED AS SOURCE/SINK TERM
FACE 6 OF (J,I,K) =   11,  46,  16 IS NOT A BOUNDARY FACE.  HEAD DEP BOUNDS FLOW TREATED AS SOURCE/SINK TERM
FACE 6 OF (J,I,K) =   10,  46,   2 IS NOT A BOUNDARY FACE.  HEAD DEP BOUNDS FLOW TREATED AS SOURCE/SINK TERM
FACE 6 OF (J,I,K) =   10,  46,   3 IS NOT A BOUNDARY FACE.  HEAD DEP BOUNDS FLOW TREATED AS SOURCE/SINK TERM
FACE 6 OF (J,I,K) =   10,  46,   4 IS NOT A BOUNDARY FACE.  HEAD DEP BOUNDS FLOW TREATED AS SOURCE/SINK TERM
FACE 6 OF (J,I,K) =   10,  46,   5 IS NOT A BOUNDARY FACE.  HEAD DEP BOUNDS FLOW TREATED AS SOURCE/SINK TERM
FACE 6 OF (J,I,K) =   10,  46,   6 IS NOT A BOUNDARY FACE.  HEAD DEP BOUNDS FLOW TREATED AS SOURCE/SINK TERM
FACE 6 OF (J,I,K) =   10,  46,   7 IS NOT A BOUNDARY FACE.  HEAD DEP BOUNDS FLOW TREATED AS SOURCE/SINK TERM
FACE 6 OF (J,I,K) =   10,  46,   8 IS NOT A BOUNDARY FACE.  HEAD DEP BOUNDS FLOW TREATED AS SOURCE/SINK TERM
FACE 6 OF (J,I,K) =   10,  46,   9 IS NOT A BOUNDARY FACE.  HEAD DEP BOUNDS FLOW TREATED AS SOURCE/SINK TERM
FACE 6 OF (J,I,K) =   10,  46,  10 IS NOT A BOUNDARY FACE.  HEAD DEP BOUNDS FLOW TREATED AS SOURCE/SINK TERM
FACE 6 OF (J,I,K) =   10,  46,  11 IS NOT A BOUNDARY FACE.  HEAD DEP BOUNDS FLOW TREATED AS SOURCE/SINK TERM
FACE 6 OF (J,I,K) =   10,  46,  12 IS NOT A BOUNDARY FACE.  HEAD DEP BOUNDS FLOW TREATED AS SOURCE/SINK TERM
FACE 6 OF (J,I,K) =   10,  46,  13 IS NOT A BOUNDARY FACE.  HEAD DEP BOUNDS FLOW TREATED AS SOURCE/SINK TERM
FACE 6 OF (J,I,K) =   10,  46,  14 IS NOT A BOUNDARY FACE.  HEAD DEP BOUNDS FLOW TREATED AS SOURCE/SINK TERM
FACE 6 OF (J,I,K) =   10,  46,  15 IS NOT A BOUNDARY FACE.  HEAD DEP BOUNDS FLOW TREATED AS SOURCE/SINK TERM
FACE 6 OF (J,I,K) =   10,  46,  16 IS NOT A BOUNDARY FACE.  HEAD DEP BOUNDS FLOW TREATED AS SOURCE/SINK TERM
FACE 6 OF (J,I,K) =   10,  47,   2 IS NOT A BOUNDARY FACE.  HEAD DEP BOUNDS FLOW TREATED AS SOURCE/SINK TERM
FACE 6 OF (J,I,K) =   10,  47,   3 IS NOT A BOUNDARY FACE.  HEAD DEP BOUNDS FLOW TREATED AS SOURCE/SINK TERM
FACE 6 OF (J,I,K) =   10,  47,   4 IS NOT A BOUNDARY FACE.  HEAD DEP BOUNDS FLOW TREATED AS SOURCE/SINK TERM
FACE 6 OF (J,I,K) =   10,  47,   5 IS NOT A BOUNDARY FACE.  HEAD DEP BOUNDS FLOW TREATED AS SOURCE/SINK TERM
FACE 6 OF (J,I,K) =   10,  47,   6 IS NOT A BOUNDARY FACE.  HEAD DEP BOUNDS FLOW TREATED AS SOURCE/SINK TERM
FACE 6 OF (J,I,K) =   10,  47,   7 IS NOT A BOUNDARY FACE.  HEAD DEP BOUNDS FLOW TREATED AS SOURCE/SINK TERM
FACE 6 OF (J,I,K) =   10,  47,   8 IS NOT A BOUNDARY FACE.  HEAD DEP BOUNDS FLOW TREATED AS SOURCE/SINK TERM
FACE 6 OF (J,I,K) =   10,  47,   9 IS NOT A BOUNDARY FACE.  HEAD DEP BOUNDS FLOW TREATED AS SOURCE/SINK TERM
FACE 6 OF (J,I,K) =   10,  47,  10 IS NOT A BOUNDARY FACE.  HEAD DEP BOUNDS FLOW TREATED AS SOURCE/SINK TERM
FACE 6 OF (J,I,K) =   10,  47,  11 IS NOT A BOUNDARY FACE.  HEAD DEP BOUNDS FLOW TREATED AS SOURCE/SINK TERM
FACE 6 OF (J,I,K) =   10,  47,  12 IS NOT A BOUNDARY FACE.  HEAD DEP BOUNDS FLOW TREATED AS SOURCE/SINK TERM
FACE 6 OF (J,I,K) =   10,  47,  13 IS NOT A BOUNDARY FACE.  HEAD DEP BOUNDS FLOW TREATED AS SOURCE/SINK TERM
FACE 6 OF (J,I,K) =   10,  47,  14 IS NOT A BOUNDARY FACE.  HEAD DEP BOUNDS FLOW TREATED AS SOURCE/SINK TERM
FACE 6 OF (J,I,K) =   10,  47,  15 IS NOT A BOUNDARY FACE.  HEAD DEP BOUNDS FLOW TREATED AS SOURCE/SINK TERM
FACE 6 OF (J,I,K) =   10,  47,  16 IS NOT A BOUNDARY FACE.  HEAD DEP BOUNDS FLOW TREATED AS SOURCE/SINK TERM
FACE 6 OF (J,I,K) =   10,  48,   2 IS NOT A BOUNDARY FACE.  HEAD DEP BOUNDS FLOW TREATED AS SOURCE/SINK TERM
FACE 6 OF (J,I,K) =   10,  48,   3 IS NOT A BOUNDARY FACE.  HEAD DEP BOUNDS FLOW TREATED AS SOURCE/SINK TERM
FACE 6 OF (J,I,K) =   10,  48,   4 IS NOT A BOUNDARY FACE.  HEAD DEP BOUNDS FLOW TREATED AS SOURCE/SINK TERM
FACE 6 OF (J,I,K) =   10,  48,   5 IS NOT A BOUNDARY FACE.  HEAD DEP BOUNDS FLOW TREATED AS SOURCE/SINK TERM
[...]
    2   57    1   0.9428    0.29788E-05
    2   58    1   0.7019    0.24677E-05
    2   59    1   0.2816    0.10279E-05
    3    1    1   0.0536    0.46064E-07
    3    2    1  -0.0182   -0.16735E-07
    3    3    1  -0.0672   -0.62260E-07
    3    4    1  -0.0804   -0.81433E-07
    3   55    1  -0.2680   -0.41847E-06
    3   56    1   1.4796    0.42437E-05
    3   57    1   1.2350    0.45785E-05
    3   58    1   0.9119    0.37156E-05
    3   59    1   0.1565    0.67873E-06
    3   60    1  -1.4427   -0.12851E-05
    4    1    1   0.0324    0.28762E-07
    4    2    1  -0.0752   -0.75008E-07
    4    3    1  -0.1525   -0.17454E-06
    4    4    1  -0.0259   -0.25582E-07
    4   55    1  -1.1255   -0.23605E-05
    4   56    1   1.4677    0.51105E-05
    4   57    1   1.2111    0.47155E-05
    4   58    1   1.2254    0.47946E-05
    4   59    1   0.9702    0.34400E-05
    4   60    1  -1.2141   -0.21727E-05
    5    1    1   0.0592    0.54039E-07
    5    2    1   0.0090    0.88912E-08
    5    3    1   0.0042    0.45911E-08
    5    4    1  -0.1711   -0.17820E-06
    5   55    1  -1.5680   -0.38733E-05
    5   56    1   0.5359    0.20250E-05
    5   57    1   1.2921    0.50449E-05
    5   58    1   1.2541    0.45352E-05
    5   59    1   1.1222    0.33723E-05
    5   60    1   0.3949    0.74148E-06
    6    1    1   0.0519    0.49877E-07
    6    2    1   0.0226    0.22526E-07
    6    3    1  -0.0365   -0.40134E-07
    6    4    1  -0.2399   -0.22551E-06
    6   55    1  -0.3084   -0.85519E-06
    6   56    1   0.3372    0.11454E-05
    6   57    1   1.2566    0.39543E-05
    6   58    1   1.6536    0.38936E-05
    6   59    1   0.6557    0.10623E-05
    7    1    1   0.0443    0.43430E-07
    7    2    1   0.0356    0.36060E-07
    7    3    1   0.0379    0.40251E-07
    7   55    1   1.7874    0.12846E-05
    7   56    1  -0.4716   -0.62730E-06
    7   57    1   0.3253    0.39166E-06
    7   75    1   2.0152    0.11926E-05
    7   76    1   0.2004    0.22686E-06
    7   77    1  -0.1053   -0.13084E-06
    8    1    1   0.0253    0.25924E-07
    8    2    1   0.0353    0.37369E-07
    8    3    1   0.0087    0.73487E-08
    8   74    1   0.5898    0.13832E-05
    8   75    1  -0.3857   -0.19387E-05
    8   76    1  -1.4240   -0.78202E-05
    8   77    1  -0.7699   -0.46703E-05
    8   78    1   0.3879    0.24234E-05
    8   79    1   1.5905    0.60151E-05
    8   80    1   1.6281    0.28650E-05
    9    1    1  -0.0061   -0.66429E-08
    9    2    1   0.0793    0.64829E-07
    9   73    1   1.2920    0.16133E-05
    9   74    1  -1.4040   -0.74705E-05
    9   75    1  -1.9779   -0.17994E-04
    9   76    1  -1.0254   -0.32284E-04
    9   77    1  -0.9315   -0.37151E-04
    9   78    1  -1.0777   -0.33479E-04
    9   79    1  -0.9918   -0.98773E-05
    9   80    1   0.5719    0.43954E-05
    9   81    1   3.0431    0.14620E-04
    9   82    1  -0.4071   -0.11288E-05
   10    1    1  -0.0876   -0.68387E-07
   10   38    1   0.0027    0.21304E-07
   10   39    1  -0.1999   -0.30955E-05
   10   40    1   0.8084    0.11939E-04
   10   41    1   0.3361    0.41701E-05
   10   42    1   0.1353    0.13527E-05
   10   43    1   0.1111    0.91374E-06
   10   44    1   0.3312    0.23287E-05
   10   45    1   0.9561    0.59336E-05
   10   46    1   2.0271    0.28982E-05
   10   73    1  -0.0702   -0.23385E-06
   10   74    1  -0.9234   -0.86994E-05
   10   75    1  -0.4690   -0.15320E-04
   10   76    1   0.7688    0.29825E-04
   10   77    1   0.5031    0.27550E-04
   10   78    1   0.2516    0.13299E-04
   10   79    1  -0.1427   -0.62604E-05
   10   80    1  -0.3443   -0.12985E-04
   10   81    1  -0.3386   -0.43885E-05
   10   82    1   0.3216    0.27152E-05
   10   83    1   1.8069    0.46792E-05
   10   84    1   0.3568    0.19603E-06
   11   37    1  -0.0072   -0.29523E-06
   11   38    1  -0.0638   -0.33318E-05
   11   39    1  -0.6427   -0.15341E-04
   11   40    1   0.1442    0.13906E-06
   11   41    1  -0.0728   -0.65258E-07
   11   42    1  -0.0407   -0.34888E-07
   11   43    1  -0.0391   -0.32836E-07
   11   44    1  -0.0384   -0.34350E-07
   11   45    1  -0.1009   -0.12267E-05
   11   46    1   2.1456    0.11354E-04
   11   47    1   1.7098    0.46761E-05
   11   73    1   1.7354    0.81757E-05
   11   74    1  -2.2697   -0.13621E-04
   11   75    1  -0.2777   -0.21716E-06
   11   76    1   0.1758    0.11393E-06
   11   77    1   0.8726    0.27681E-04
   11   78    1   0.6207    0.34208E-04
   11   79    1   0.0490    0.24186E-05
   11   80    1   0.1504    0.94036E-05
   11   81    1   0.2497    0.11291E-04
   11   82    1  -0.0314   -0.84913E-06
   11   83    1  -0.3630   -0.21865E-05
   11   84    1  -0.2385   -0.68825E-06
   12   35    1  -0.0416   -0.12007E-05
   12   36    1   0.0903    0.54259E-05
   12   37    1  -0.0079   -0.63330E-06
   12   38    1  -0.3422   -0.10996E-04
   12   39    1  -0.1303   -0.16019E-06
   12   40    1   0.0700    0.68489E-07
   12   41    1   0.0668    0.57560E-07
   12   42    1   0.0775    0.65826E-07
   12   43    1   0.0504    0.44427E-07
   12   44    1   0.0220    0.20154E-07
   12   45    1   0.6248    0.13104E-04
   12   46    1   2.3915    0.46112E-04
   12   47    1   1.4698    0.10413E-04
   12   48    1   1.1720    0.36785E-05
   12   73    1   1.2077    0.56457E-05
   12   74    1  -5.5489   -0.20891E-04
   12   75    1  -0.3836   -0.30357E-06
   12   76    1  -0.0807   -0.55617E-07
   12   77    1  -0.0718   -0.48582E-07
   12   78    1   0.5940    0.16714E-04
   12   79    1   0.1861    0.75959E-05
   12   80    1   0.1902    0.11113E-04
   12   81    1  -0.2078   -0.97291E-05
   12   82    1  -0.3176   -0.11792E-04
   12   83    1   0.5459    0.89429E-05
   12   84    1   0.0531    0.53819E-06
   12   85    1   0.8148    0.25634E-05
   13   34    1  -0.4540   -0.36541E-05
   13   35    1  -0.0214   -0.17174E-05
   13   36    1   0.0182    0.22445E-05
   13   37    1   0.0111    0.10189E-05
   13   38    1  -0.0793   -0.11393E-06
   13   39    1  -0.1235   -0.12908E-06
   13   40    1   0.0204    0.18903E-07
   13   41    1   0.0681    0.61511E-07
   13   42    1   0.1355    0.11833E-06
   13   43    1   0.1147    0.11355E-06
   13   44    1   0.0100    0.25495E-06
   13   45    1   1.7447    0.58259E-04
   13   46    1   1.4329    0.52647E-04
   13   47    1   1.4879    0.38317E-04
   13   48    1   0.8134    0.69488E-05
   13   49    1   0.4060    0.19877E-05
   13   73    1   3.2129    0.59216E-05
   13   74    1   0.0681    0.48429E-07
   13   75    1  -0.3179   -0.25038E-06
   13   76    1  -0.0200   -0.14079E-07
   13   77    1   0.0569    0.36613E-07
   13   78    1   0.0696    0.46464E-07
   13   79    1   0.1211    0.76318E-07
   13   80    1   0.4237    0.17017E-04
   13   81    1   0.5006    0.22376E-04
   13   82    1  -0.0862   -0.30966E-05
   13   83    1  -0.3341   -0.20405E-06
   13   84    1  -1.0744   -0.88965E-05
   13   85    1  -0.9444   -0.57188E-05
   14   35    1  -0.1397   -0.12517E-04
   14   36    1  -0.1720   -0.19305E-04
   14   37    1  -0.5268   -0.41879E-04
   14   38    1   0.0465    0.12649E-06
   14   39    1  -0.1614   -0.18068E-06
   14   40    1  -0.0594   -0.57058E-07
   14   41    1   0.0633    0.54548E-07
   14   42    1   0.1704    0.16482E-06
   14   43    1   0.0048    0.16810E-06
   14   44    1   1.1327    0.40960E-04
   14   45    1   1.0949    0.40461E-04
   14   46    1   1.4072    0.55116E-04
   14   47    1   0.9772    0.41109E-04
   14   48    1   0.3826    0.14114E-04
   14   49    1   0.4217    0.10469E-04
   14   50    1   0.1299    0.77777E-06
   14   51    1   0.3731    0.93240E-06
   14   73    1  -3.4115   -0.95133E-05
   14   74    1  -0.0096   -0.78580E-08
   14   75    1  -0.2939   -0.22401E-06
   14   76    1  -0.0650   -0.43925E-07
   14   78    1   0.0496    0.30050E-07
   14   79    1   0.1417    0.95104E-07
   14   80    1   0.4181    0.12546E-04
   14   81    1   0.4175    0.23659E-04
   14   82    1   0.4802    0.22242E-04
   14   83    1  -0.2955   -0.18266E-06
   14   84    1  -0.1875   -0.11775E-05
   14   85    1  -0.6733   -0.40102E-05
   15   25    1  -0.0026   -0.64261E-07
   15   26    1   0.0303    0.16600E-04
   15   27    1   0.0066    0.75996E-06
   15   35    1   0.0747    0.18245E-05
   15   36    1  -0.0679   -0.75642E-05
   15   37    1  -0.3928   -0.29222E-04
   15   38    1   0.0473    0.15867E-06
   15   39    1  -0.1364   -0.13835E-06
   15   40    1  -0.0344   -0.30610E-07
   15   41    1   0.0936    0.84103E-07
   15   42    1   0.0151    0.50128E-06
   15   43    1   0.7890    0.26889E-04
   15   44    1   0.3332    0.11718E-04
   15   45    1  -0.1164   -0.42294E-05
   15   46    1   0.0898    0.33583E-05
   15   47    1   0.8214    0.30759E-04
   15   48    1  -0.0129   -0.53830E-06
   15   49    1  -0.1923   -0.75949E-05
   15   50    1  -0.3586   -0.75516E-05
   15   51    1  -0.0421   -0.17587E-06
   15   52    1   0.3582    0.87092E-06
   15   73    1  -2.9304   -0.20941E-04
   15   74    1   1.0056    0.49364E-05
   15   75    1  -0.0361   -0.31330E-07
   15   76    1  -0.0848   -0.57742E-07
   15   77    1  -0.0174   -0.11176E-07
   15   78    1  -0.0331   -0.19441E-07
   15   79    1  -0.0677   -0.40243E-07
   15   80    1  -0.1258   -0.76390E-07
   15   81    1   0.1762    0.70781E-05
   15   82    1   0.6075    0.36133E-04
   15   83    1  -1.3549   -0.44151E-04
   15   84    1  -0.9382   -0.10827E-04
   15   85    1  -0.8577   -0.36067E-05
   16   25    1  -0.1082   -0.45262E-04
   16   26    1  -0.0136   -0.31535E-05
   16   27    1  -0.0173   -0.27586E-05
   16   36    1  -0.0640   -0.83493E-05
   16   37    1   0.1329    0.12304E-04
   16   38    1   0.0158    0.61176E-07
   16   39    1  -0.0300   -0.29402E-07
   16   40    1   0.0602    0.52118E-07
   16   41    1   0.0903    0.13057E-06
   16   42    1  -0.3823   -0.65042E-05
   16   43    1   0.6635    0.16582E-04
   16   44    1  -0.0169   -0.55158E-06
   16   45    1   0.0280    0.91991E-06
   16   46    1   0.2663    0.76527E-05
   16   47    1   0.0444    0.77838E-07
   16   48    1  -0.9678   -0.21516E-04
   16   49    1  -0.0158   -0.55158E-06
   16   50    1  -0.6528   -0.22324E-04
   16   51    1  -0.5823   -0.28532E-05
   16   52    1  -0.7306   -0.20835E-05
   16   73    1   2.6511    0.10779E-04
   16   74    1  -0.3686   -0.26842E-05
   16   75    1  -0.1076   -0.72687E-07
   16   76    1  -0.0380   -0.27459E-07
   16   77    1  -0.0134   -0.89058E-08
   16   78    1  -0.0289   -0.17557E-07
   16   79    1  -0.0456   -0.27303E-07
   16   80    1   0.0165    0.10426E-07
   16   81    1   1.2130    0.27681E-04
   16   82    1   1.7775    0.83506E-04
   16   83    1   0.6606    0.79275E-05
   16   84    1  -0.2129   -0.11958E-05
   16   85    1  -1.5998   -0.20996E-05
   17   25    1   0.0395    0.16153E-04
   17   26    1  -0.0417   -0.10965E-04
   17   27    1  -0.0098   -0.12787E-05
   17   37    1   0.3431    0.12855E-04
   17   38    1  -0.0137   -0.55210E-07
   17   39    1   0.0428    0.62166E-07
   17   40    1   0.0150    0.35114E-07
   17   41    1  -0.2693   -0.45408E-06
   17   42    1  -0.2679   -0.59734E-06
   17   43    1  -0.3151   -0.73257E-06
   17   44    1  -0.2889   -0.75169E-06
   17   45    1  -0.2726   -0.65977E-06
   17   46    1  -0.2593   -0.59938E-06
   17   47    1  -0.1628   -0.24754E-06
   17   48    1  -0.3144   -0.56977E-06
   17   49    1   0.1596    0.33322E-06
   17   50    1  -0.5902   -0.99131E-05
   17   51    1  -0.6362   -0.24932E-05
   17   52    1  -1.5069   -0.49822E-05
   17   73    1  -0.0970   -0.29310E-06
   17   74    1  -0.8876   -0.44543E-05
   17   75    1  -0.8094   -0.31781E-05
   17   76    1  -1.9582   -0.28552E-05
   17   77    1   0.3695    0.28550E-06
   17   78    1  -0.0176   -0.11438E-07
   17   79    1  -0.0398   -0.23872E-07
   17   80    1  -0.0731   -0.42677E-07
   17   81    1  -0.1097   -0.65560E-07
   17   82    1   1.4892    0.42545E-04
   17   83    1   0.5787    0.47423E-05
   17   84    1   0.2398    0.11452E-05
   18   25    1  -0.0049   -0.11176E-05
   18   26    1  -0.0749   -0.16021E-04
   18   27    1  -0.0816   -0.47553E-05
   18   37    1   0.0610    0.10604E-04
   18   38    1  -0.0721   -0.33193E-06
   18   39    1  -0.0844   -0.16959E-06
   18   40    1  -0.0423   -0.62006E-07
   18   41    1  -0.1813   -0.22160E-06
   18   42    1   0.0712    0.10253E-06
   18   43    1   0.0053    0.71159E-08
   18   44    1  -0.0264   -0.26550E-07
   18   45    1  -0.0570   -0.51383E-07
   18   46    1  -0.0144   -0.15309E-07
   18   47    1   0.0221    0.26303E-07
   18   48    1  -0.0390   -0.50597E-07
   18   49    1  -0.2138   -0.34618E-06
   18   50    1  -0.2968   -0.44545E-06
   18   51    1   0.1603    0.18605E-06
   18   52    1  -0.2272   -0.30972E-05
   18   73    1   0.0302    0.34604E-07
   18   74    1  -0.8758   -0.31951E-05
   18   75    1  -1.1390   -0.48852E-05
   18   76    1  -0.0582   -0.24491E-06
   18   77    1  -0.6297   -0.13329E-05
   18   78    1   0.4621    0.33878E-06
   18   79    1   0.0975    0.59736E-07
   18   80    1   0.0737    0.42870E-07
   18   81    1   0.3425    0.20322E-06
   18   82    1   1.6431    0.18133E-04
   18   83    1   0.4329    0.35315E-05
   18   84    1  -1.7474   -0.46565E-05
   19   25    1  -0.1591   -0.52254E-05
   19   37    1  -0.0230   -0.66459E-05
   19   38    1  -0.0886   -0.33416E-04
   19   39    1  -0.0153   -0.18755E-06
   19   40    1   0.0075    0.74739E-07
   19   41    1  -0.2428   -0.46124E-06
   19   42    1   0.0707    0.17829E-06
   19   43    1   0.0191    0.81200E-07
   19   44    1  -0.0200   -0.79395E-07
   19   45    1  -0.0789   -0.13712E-06
   19   46    1  -0.0398   -0.41473E-07
   19   47    1  -0.0463   -0.50743E-07
   19   48    1  -0.0177   -0.22090E-07
   19   49    1   0.0262    0.29286E-07
   19   50    1  -0.0833   -0.11378E-06
   19   51    1  -0.0638   -0.17323E-06
   19   52    1  -0.9901   -0.17174E-04
   19   74    1  -0.4646   -0.10750E-05
   19   75    1  -0.1688   -0.84611E-06
   19   76    1   0.1644    0.25600E-05
   19   77    1   0.3528    0.75512E-05
   19   78    1   0.3751    0.75996E-05
   19   79    1   1.4926    0.25516E-04
   19   80    1   0.3175    0.52762E-05
   19   81    1   0.5101    0.80389E-05
   19   82    1   0.8879    0.14054E-04
   19   83    1  -0.9156   -0.47699E-05
   20   37    1  -0.0137   -0.51595E-05
   20   38    1  -0.0277   -0.19215E-04
   20   39    1   0.0056    0.18976E-06
   20   41    1  -0.0172   -0.30210E-06
   20   42    1  -0.0129   -0.16403E-06
   20   43    1  -0.0142   -0.33970E-06
   20   44    1  -0.0249   -0.61467E-06
   20   45    1   0.0244    0.22509E-06
   20   46    1  -0.0079   -0.57509E-07
   20   47    1  -0.0072   -0.48021E-07
   20   48    1  -0.0066   -0.40454E-07
   20   49    1   0.0426    0.10725E-06
   20   50    1   0.0038    0.15949E-07
   20   51    1  -0.0726   -0.32037E-05
   20   52    1   0.2994    0.56633E-05
   20   75    1  -0.0251   -0.12334E-06
   20   76    1   0.1502    0.11672E-05
   20   77    1   0.3327    0.45046E-05
   20   78    1   0.9208    0.13946E-04
   20   79    1   0.8597    0.10995E-04
   20   80    1   0.6331    0.86107E-05
   20   81    1   1.4582    0.13489E-04
   21   37    1  -0.0432   -0.95796E-05
   21   38    1  -0.0155   -0.80056E-05
   21   39    1  -0.0389   -0.80885E-06
   21   40    1   0.0154    0.37323E-06
   21   41    1   0.2093    0.76517E-04
   21   42    1   0.0686    0.76659E-04
   21   43    1   0.0062    0.72364E-06
   21   44    1  -0.0356   -0.25588E-05
   21   45    1  -0.0366   -0.16950E-05
   21   46    1   0.0142    0.76881E-06
   21   47    1  -0.0197   -0.89593E-06
   21   48    1  -0.0516   -0.20415E-05
   21   49    1   0.0848    0.84296E-06
   21   50    1  -0.0420   -0.25512E-06
   21   51    1  -0.2546   -0.11644E-04
   21   77    1   1.0740    0.40500E-05
   21   78    1   0.0649    0.24962E-06
   22   37    1  -0.0882   -0.12474E-04
   22   38    1  -0.1156   -0.57146E-04
   22   39    1  -0.5478   -0.34485E-04
   22   40    1   0.0048    0.64843E-07
   22   42    1   0.0290    0.77039E-04
   22   43    1   0.0315    0.78306E-04
   22   44    1   0.0476    0.81018E-04
   22   45    1   0.0246    0.60331E-05
   22   46    1  -0.0293   -0.44443E-05
   22   47    1   0.0515    0.50385E-05
   22   48    1   0.0799    0.10419E-04
   22   49    1  -0.1503   -0.13547E-04
   22   50    1  -0.4641   -0.29216E-04
   23   37    1  -0.0950   -0.57910E-05
   23   38    1  -0.0365   -0.96243E-05
   23   39    1   0.0135    0.13318E-05
   23   40    1   0.0294    0.33518E-05
   23   41    1   0.0079    0.23711E-05
   23   42    1   0.0114    0.92089E-05
   23   43    1   0.0100    0.85309E-05
   23   44    1   0.0290    0.82016E-04
   23   45    1   0.0073    0.40829E-05
   23   46    1   0.0276    0.12845E-04
   23   47    1   0.0519    0.72028E-05
   23   48    1   0.0072    0.44610E-06
   24   37    1  -0.0749   -0.36764E-05
   24   38    1   0.0618    0.16322E-04
   24   39    1  -0.0386   -0.55153E-05
   24   40    1  -0.0701   -0.10616E-04
   24   41    1  -0.0127   -0.30082E-05
   24   42    1  -0.0281   -0.11604E-04
   24   43    1  -0.0279   -0.14480E-04
   24   44    1   0.0104    0.71079E-05
   24   45    1  -0.0052   -0.31143E-05
   24   46    1   0.0413    0.16011E-04
   24   47    1   0.0167    0.19632E-05
   25   37    1  -0.1753   -0.65623E-05
   25   38    1   0.0529    0.12470E-04
   25   39    1  -0.0520   -0.70930E-05
   25   40    1  -0.0994   -0.13573E-04
   25   41    1  -0.0026   -0.46752E-06
   25   42    1  -0.0155   -0.39656E-05
   25   43    1  -0.0144   -0.48690E-05
   25   44    1  -0.0200   -0.87470E-05
   25   45    1  -0.0780   -0.29102E-04
   25   46    1   0.0062    0.11437E-05
   26   38    1  -0.0254   -0.61076E-05
   26   39    1  -0.1751   -0.29122E-04
   26   40    1  -0.1024   -0.13481E-04
   26   41    1  -0.0269   -0.40550E-05
   26   42    1  -0.0389   -0.73835E-05
   26   43    1  -0.0099   -0.22203E-05
   26   44    1  -0.1437   -0.25451E-04
   27   38    1   0.0243    0.31618E-05
   27   39    1  -0.2210   -0.24737E-04
   27   40    1  -0.0676   -0.76229E-05
   27   41    1  -0.1732   -0.20643E-04
   27   42    1  -0.2121   -0.20498E-04
   27   43    1  -0.4572   -0.20081E-04
   28   38    1  -2.5742   -0.19465E-04
   30   32    1   0.2150    0.11900E-04
   30   33    1   0.4005    0.43251E-04
   30   34    1   0.4481    0.45540E-04
   30   35    1   0.6014    0.43174E-04
   30   36    1   2.2259    0.41635E-04
   31   31    1  -0.0131   -0.86613E-06
   31   32    1   0.0576    0.11062E-04
   31   33    1  -0.0156   -0.37812E-05
   31   34    1   0.0502    0.10867E-04
   31   35    1   0.2458    0.30470E-04
   31   36    1  -3.8477   -0.15666E-04
   31   57    1   0.0145    0.21560E-05
   31   58    1   0.1065    0.61546E-04
   31   59    1   0.0977    0.45560E-04
   31   60    1   0.0703    0.36072E-04
   31   61    1   0.0321    0.12740E-04
   31   62    1   0.0162    0.29884E-06
   31   63    1  -0.0147   -0.57451E-07
   31   64    1   0.1135    0.32104E-06
   31   65    1   0.0935    0.61467E-07
   31   66    1  -0.0249   -0.15491E-07
   32   31    1  -0.3463   -0.53448E-04
   32   32    1  -0.0625   -0.15311E-04
   32   33    1  -0.0162   -0.53160E-05
   32   34    1   0.0082    0.27008E-05
   32   35    1   0.3147    0.54078E-04
   32   56    1   0.1256    0.28485E-04
   32   57    1  -0.0606   -0.23969E-04
    
 TRAVEL TIME SUMMARY FOR ALL PARTICLES:
 MINIMUM TRAVEL TIME =   0.00000E+00
 MAXIMUM TRAVEL TIME =   2.62250E+05
 AVERAGE TRAVEL TIME =   4.10801E+04
   76.6% OF THE PARTICLES HAD TRAVEL TIMES LESS THAN THEAVERAGE TRAVEL TIME
    
       0 PARTICLES REMAIN ACTIVE
      64 PARTICLES STOPPED AT INTERNAL SINKS/SOURCES OR BOUNDARIES
       0 PARTICLES STOPPED IN AN AUTOMATIC TERMINATION ZONE
       0 PARTICLES WERE STRANDED IN INACTIVE CELLS
       0 PARTICLES WERE NOT RELEASED
 -----
      64 PARTICLES ACCOUNTED FOR OUT OF A TOTAL OF      64
