                                  MODFLOW-2000
      U.S. GEOLOGICAL SURVEY MODULAR FINITE-DIFFERENCE GROUND-WATER FLOW MODEL
                           VERSION 1.19.01 03/25/2010


 This model run produced both GLOBAL and LIST files.  This is the LIST file.

 
 #GMS MODFLOW Simulation                                                         
 #17 January 2025                                                                
 THE FREE FORMAT OPTION HAS BEEN SELECTED
    3 LAYERS        40 ROWS        20 COLUMNS
    1 STRESS PERIOD(S) IN SIMULATION

 BAS6 -- BASIC PACKAGE, VERSION 6, 1/11/2000 INPUT READ FROM UNIT   11
         15 ELEMENTS IN IR ARRAY ARE USED BY BAS

 WEL6 -- WELL PACKAGE, VERSION 6, 1/11/2000 INPUT READ FROM UNIT   19
 #GMS_HDF5_01
 No named parameters
 MAXIMUM OF     12 ACTIVE WELLS AT ONE TIME
 CELL-BY-CELL FLOWS WILL BE SAVED ON UNIT   40
 AUXILIARY WELL VARIABLE: IFACE           
 AUXILIARY WELL VARIABLE: QFACT           
 AUXILIARY WELL VARIABLE: CELLGRP         
         84 ELEMENTS IN RX ARRAY ARE USED BY WEL

 DRN6 -- DRAIN PACKAGE, VERSION 6, 1/11/2000 INPUT READ FROM UNIT   20
 #GMS_HDF5_01
 No named parameters
 MAXIMUM OF     78 ACTIVE DRAINS AT ONE TIME
 CELL-BY-CELL FLOWS WILL BE SAVED ON UNIT   40
 AUXILIARY DRAIN VARIABLE: IFACE           
 AUXILIARY DRAIN VARIABLE: CONDFACT        
 AUXILIARY DRAIN VARIABLE: CELLGRP         
        624 ELEMENTS IN RX ARRAY ARE USED BY DRN

 RCH6 -- RECHARGE PACKAGE, VERSION 6, 1/11/2000 INPUT READ FROM UNIT   18
 #GMS_HDF5_01
 No named parameters
 OPTION 3 -- RECHARGE TO HIGHEST ACTIVE NODE IN EACH VERTICAL COLUMN
 CELL-BY-CELL FLOWS WILL BE SAVED ON UNIT   40
        800 ELEMENTS IN RX ARRAY ARE USED BY RCH
        800 ELEMENTS IN IR ARRAY ARE USED BY RCH

 CHD6 -- TIME-VARIANT SPECIFIED-HEAD PACKAGE, VERSION 6, 1/11/2000
 INPUT READ FROM UNIT   21
 #GMS_HDF5_01
 No named parameters
 MAXIMUM OF     31 TIME-VARIANT SPECIFIED-HEAD CELLS AT ONE TIME
 AUXILIARY CHD VARIABLE: SHEADFACT       
 AUXILIARY CHD VARIABLE: EHEADFACT       
 AUXILIARY CHD VARIABLE: CELLGRP         
        248 ELEMENTS IN RX ARRAY ARE USED BY CHD

       1756  ELEMENTS OF RX ARRAY USED OUT OF       1756
          0  ELEMENTS OF RZ ARRAY USED OUT OF          1
        815  ELEMENTS OF IR ARRAY USED OUT OF        815
1
 #GMS MODFLOW Simulation                                                         
 #17 January 2025                                                                

                1           2           3           4           5           6           7           8           9          10
               11          12          13          14          15          16          17          18          19          20
 ............................................................................................................................
   1            1           1           1           1           1           1           1           1           1           1
                1           1           1           1           1           1           1           1           1           1
   2            1           1           1           1           1           1           1           1           1           1
                1           1           1           1           1           1           1           1           1           1
   3            1           1           1           1           1           1           1           1           1           1
                1           1           1           1           1           1           1           1           1           1
   4            1           1           1           1           1           1           1           1           1           1
                1           1           1           1           1           1           1           1           1           1
   5            1           1           1           1           1           1           1           1           1           1
                1           1           1           1           1           1           1           1           1           1
   6            1           1           1           1           1           1           1           1           1           1
                1           1           1           1           1           1           1           1           1           1
   7            1           1           1           1           1           1           1           1           1           1
                1           1           1           1           1           1           1           1           1           1
   8            1           1           1           1           1           1           1           1           1           1
                1           1           1           1           1           1           1           1           1           1
   9            1           1           1           1           0           0           0           1           1           1
                1           1           1           1           1           1           1           1           1           1
  10            1           1           1           1           0           0           0           0           1           1
                1           1           1           1           1           1           1           1           1           1
  11            1           1           1           1           0           0           0           0           1           1
                1           1           1           1           1           1           1           1           1           1
  12            1           1           1           1           0           0           0           0           1           1
                1           1           1           1           1           1           1           1           1           1
  13            1           1           1           1           0           0           0           0           1           1
                1           1           1           1           1           1           1           1           1           1
  14            1           1           1           1           0           0           0           0           1           1
                1           1           1           1           1           1           1           1           1           1
  15            1           1           1           1           0           0           0           0           1           1
                1           1           1           1           1           1           1           1           1           1
  16            1           1           1           1           0           0           0           0           1           1
                1           1           1           1           1           1           1           1           1           1
  17            1           1           1           1           0           0           0           0           1           1
                1           1           1           1           1           1           1           1           1           1
  18            1           1           1           1           0           0           0           0           1           1
                1           1           1           1           1           1           1           1           1           1
  19            1           1           1           1           0           0           0           0           1           1
                1           1           1           1           1           1           1           1           1           1
  20            1           1           1           1           0           0           0           0           1           1
                1           1           1           1           1           1           1           1           1           1
  21            1           1           1           1           0           0           0           0           1           1
                1           1           1           1           1           1           1           1           1           1
  22            1           1           1           1           0           0           1           1           1           1
                1           1           1           1           1           1           1           1           1           1
  23            1           1           1           1           1           0           1           1           1           1
                1           1           1           1           1           1           1           1           1           1
  24            1           1           1           1           1           1           1           1           1           1
                1           1           1           1           1           1           1           1           1           1
  25            1           1           1           1           1           1           1           1           1           1
                1           1           1           1           1           1           1           1           1           1
  26            1           1           1           1           1           1           1           1           1           1
                1           1           1           1           1           1           1           1           1           1
  27            1           1           1           1           1           1           1           1           1           1
                1           1           1           1           1           1           1           1           1           1
  28            1           1           1           1           1           1           1           1           1           1
                1           1           1           1           1           1           1           1           1           1
  29            1           1           1           1           1           1           1           1           1           1
                1           1           1           1           1           1           1           1           1           1
  30            1           1           1           1           1           1           1           1           1           1
                1           1           1           1           1           1           1           1           1           1
  31            1           1           1           1           1           1           1           1           1           1
                1           1           1           1           1           1           1           1           1           1
  32            1           1           1           1           1           1           1           1           1           1
                1           1           1           1           1           1           1           1           1           1
  33            0           1           1           1           1           1           1           1           1           1
                1           1           1           1           1           1           1           1           1           1
  34            0           0           1           1           1           1           1           1           1           1
                1           1           1           1           1           1           1           1           1           1
  35            0           0           0           1           1           1           1           1           1           1
                1           1           1           1           1           1           1           1           1           1
  36            0           0           0           0           1           1           1           1           1           1
                1           1           1           1           1           1           1           1           1           0
  37            0           0           0           0           1           1           1           1           1           1
                1           1           1           1           1           1           1           1           1           0
  38            0           0           0           0           0           1           1           1           1           1
                1           1           1           1           1           1           1           1           0           0
  39            0           0           0           0           0           1           1           1           1           1
                1           1           1           1           1           1           1           0           0           0
  40            0           0           0           0           0           1           1           1           1           1
                1           1           1           1           1           1           0           0           0           0

                1           2           3           4           5           6           7           8           9          10
               11          12          13          14          15          16          17          18          19          20
 ............................................................................................................................
   1            1           1           1           1           1           1           1           1           1           1
                1           1           1           1           1           1           1           1           1           1
   2            1           1           1           1           1           1           1           1           1           1
                1           1           1           1           1           1           1           1           1           1
   3            1           1           1           1           1           1           1           1           1           1
                1           1           1           1           1           1           1           1           1           1
   4            1           1           1           1           1           1           1           1           1           1
                1           1           1           1           1           1           1           1           1           1
   5            1           1           1           1           1           1           1           1           1           1
                1           1           1           1           1           1           1           1           1           1
   6            1           1           1           1           1           1           1           1           1           1
                1           1           1           1           1           1           1           1           1           1
   7            1           1           1           1           1           1           1           1           1           1
                1           1           1           1           1           1           1           1           1           1
   8            1           1           1           1           1           1           1           1           1           1
                1           1           1           1           1           1           1           1           1           1
   9            1           1           1           1           0           0           0           1           1           1
                1           1           1           1           1           1           1           1           1           1
  10            1           1           1           1           0           0           0           0           1           1
                1           1           1           1           1           1           1           1           1           1
  11            1           1           1           1           0           0           0           0           1           1
                1           1           1           1           1           1           1           1           1           1
  12            1           1           1           1           0           0           0           0           1           1
                1           1           1           1           1           1           1           1           1           1
  13            1           1           1           1           0           0           0           0           1           1
                1           1           1           1           1           1           1           1           1           1
  14            1           1           1           1           0           0           0           0           1           1
                1           1           1           1           1           1           1           1           1           1
  15            1           1           1           1           0           0           0           0           1           1
                1           1           1           1           1           1           1           1           1           1
  16            1           1           1           1           0           0           0           0           1           1
                1           1           1           1           1           1           1           1           1           1
  17            1           1           1           1           0           0           0           0           1           1
                1           1           1           1           1           1           1           1           1           1
  18            1           1           1           1           0           0           0           0           1           1
                1           1           1           1           1           1           1           1           1           1
  19            1           1           1           1           0           0           0           0           1           1
                1           1           1           1           1           1           1           1           1           1
  20            1           1           1           1           0           0           0           0           1           1
                1           1           1           1           1           1           1           1           1           1
  21            1           1           1           1           0           0           0           0           1           1
                1           1           1           1           1           1           1           1           1           1
  22            1           1           1           1           0           0           1           1           1           1
                1           1           1           1           1           1           1           1           1           1
  23            1           1           1           1           1           0           1           1           1           1
                1           1           1           1           1           1           1           1           1           1
  24            1           1           1           1           1           1           1           1           1           1
                1           1           1           1           1           1           1           1           1           1
  25            1           1           1           1           1           1           1           1           1           1
                1           1           1           1           1           1           1           1           1           1
  26            1           1           1           1           1           1           1           1           1           1
                1           1           1           1           1           1           1           1           1           1
  27            1           1           1           1           1           1           1           1           1           1
                1           1           1           1           1           1           1           1           1           1
  28            1           1           1           1           1           1           1           1           1           1
                1           1           1           1           1           1           1           1           1           1
  29            1           1           1           1           1           1           1           1           1           1
                1           1           1           1           1           1           1           1           1           1
  30            1           1           1           1           1           1           1           1           1           1
                1           1           1           1           1           1           1           1           1           1
  31            1           1           1           1           1           1           1           1           1           1
                1           1           1           1           1           1           1           1           1           1
  32            1           1           1           1           1           1           1           1           1           1
                1           1           1           1           1           1           1           1           1           1
  33            0           1           1           1           1           1           1           1           1           1
                1           1           1           1           1           1           1           1           1           1
  34            0           0           1           1           1           1           1           1           1           1
                1           1           1           1           1           1           1           1           1           1
  35            0           0           0           1           1           1           1           1           1           1
                1           1           1           1           1           1           1           1           1           1
  36            0           0           0           0           1           1           1           1           1           1
                1           1           1           1           1           1           1           1           1           0
  37            0           0           0           0           1           1           1           1           1           1
                1           1           1           1           1           1           1           1           1           0
  38            0           0           0           0           0           1           1           1           1           1
                1           1           1           1           1           1           1           1           0           0
  39            0           0           0           0           0           1           1           1           1           1
                1           1           1           1           1           1           1           0           0           0
  40            0           0           0           0           0           1           1           1           1           1
                1           1           1           1           1           1           0           0           0           0

                1           2           3           4           5           6           7           8           9          10
               11          12          13          14          15          16          17          18          19          20
 ............................................................................................................................
   1            1           1           1           1           1           1           1           1           1           1
                1           1           1           1           1           1           1           1           1           1
   2            1           1           1           1           1           1           1           1           1           1
                1           1           1           1           1           1           1           1           1           1
   3            1           1           1           1           1           1           1           1           1           1
                1           1           1           1           1           1           1           1           1           1
   4            1           1           1           1           1           1           1           1           1           1
                1           1           1           1           1           1           1           1           1           1
   5            1           1           1           1           1           1           1           1           1           1
                1           1           1           1           1           1           1           1           1           1
   6            1           1           1           1           1           1           1           1           1           1
                1           1           1           1           1           1           1           1           1           1
   7            1           1           1           1           1           1           1           1           1           1
                1           1           1           1           1           1           1           1           1           1
   8            1           1           1           1           1           1           1           1           1           1
                1           1           1           1           1           1           1           1           1           1
   9            1           1           1           1           0           0           0           1           1           1
                1           1           1           1           1           1           1           1           1           1
  10            1           1           1           1           0           0           0           0           1           1
                1           1           1           1           1           1           1           1           1           1
  11            1           1           1           1           0           0           0           0           1           1
                1           1           1           1           1           1           1           1           1           1
  12            1           1           1           1           0           0           0           0           1           1
                1           1           1           1           1           1           1           1           1           1
  13            1           1           1           1           0           0           0           0           1           1
                1           1           1           1           1           1           1           1           1           1
  14            1           1           1           1           0           0           0           0           1           1
                1           1           1           1           1           1           1           1           1           1
  15            1           1           1           1           0           0           0           0           1           1
                1           1           1           1           1           1           1           1           1           1
  16            1           1           1           1           0           0           0           0           1           1
                1           1           1           1           1           1           1           1           1           1
  17            1           1           1           1           0           0           0           0           1           1
                1           1           1           1           1           1           1           1           1           1
  18            1           1           1           1           0           0           0           0           1           1
                1           1           1           1           1           1           1           1           1           1
  19            1           1           1           1           0           0           0           0           1           1
                1           1           1           1           1           1           1           1           1           1
  20            1           1           1           1           0           0           0           0           1           1
                1           1           1           1           1           1           1           1           1           1
  21            1           1           1           1           0           0           0           0           1           1
                1           1           1           1           1           1           1           1           1           1
  22            1           1           1           1           0           0           1           1           1           1
                1           1           1           1           1           1           1           1           1           1
  23            1           1           1           1           1           0           1           1           1           1
                1           1           1           1           1           1           1           1           1           1
  24            1           1           1           1           1           1           1           1           1           1
                1           1           1           1           1           1           1           1           1           1
  25            1           1           1           1           1           1           1           1           1           1
                1           1           1           1           1           1           1           1           1           1
  26            1           1           1           1           1           1           1           1           1           1
                1           1           1           1           1           1           1           1           1           1
  27            1           1           1           1           1           1           1           1           1           1
                1           1           1           1           1           1           1           1           1           1
  28            1           1           1           1           1           1           1           1           1           1
                1           1           1           1           1           1           1           1           1           1
  29            1           1           1           1           1           1           1           1           1           1
                1           1           1           1           1           1           1           1           1           1
  30            1           1           1           1           1           1           1           1           1           1
                1           1           1           1           1           1           1           1           1           1
  31            1           1           1           1           1           1           1           1           1           1
                1           1           1           1           1           1           1           1           1           1
  32            1           1           1           1           1           1           1           1           1           1
                1           1           1           1           1           1           1           1           1           1
  33            0           1           1           1           1           1           1           1           1           1
                1           1           1           1           1           1           1           1           1           1
  34            0           0           1           1           1           1           1           1           1           1
                1           1           1           1           1           1           1           1           1           1
  35            0           0           0           1           1           1           1           1           1           1
                1           1           1           1           1           1           1           1           1           1
  36            0           0           0           0           1           1           1           1           1           1
                1           1           1           1           1           1           1           1           1           0
  37            0           0           0           0           1           1           1           1           1           1
                1           1           1           1           1           1           1           1           1           0
  38            0           0           0           0           0           1           1           1           1           1
                1           1           1           1           1           1           1           1           0           0
  39            0           0           0           0           0           1           1           1           1           1
                1           1           1           1           1           1           1           0           0           0
  40            0           0           0           0           0           1           1           1           1           1
                1           1           1           1           1           1           0           0           0           0

 AQUIFER HEAD WILL BE SET TO -999.00     AT ALL NO-FLOW NODES (IBOUND=0).

 OUTPUT CONTROL IS SPECIFIED ONLY AT TIME STEPS FOR WHICH OUTPUT IS DESIRED
 COMPACT CELL-BY-CELL BUDGET FILES WILL BE WRITTEN
 AUXILIARY DATA WILL BE SAVED IN CELL-BY-CELL BUDGET FILES
 HEAD PRINT FORMAT CODE IS   0    DRAWDOWN PRINT FORMAT CODE IS   0
 HEADS WILL BE SAVED ON UNIT    4    DRAWDOWNS WILL BE SAVED ON UNIT    0
1
                            STRESS PERIOD NO.    1, LENGTH =   1.000000    
                            -----------------------------------------------

                              NUMBER OF TIME STEPS =     1

                               MULTIPLIER FOR DELT =     1.000

                            INITIAL TIME STEP SIZE =   1.000000    

 WELL NO.  LAYER   ROW   COL   STRESS RATE         IFACE           QFACT           CELLGRP         
 --------------------------------------------------------------------------------------------------
      1      2      9     17      -285.9           0.000           1.000           1.000    
      2      3      9     17      -422.6           0.000           1.000           1.000    
      3      2     11     13      -142.9           0.000           1.000           2.000    
      4      3     11     13      -211.3           0.000           1.000           2.000    
      5      2     20     14      -144.1           0.000           1.000           3.000    
      6      3     20     14      -192.9           0.000           1.000           3.000    
      7      2     26     10      -28.94           0.000           1.000           4.000    
      8      3     26     10      -42.78           0.000           1.000           4.000    
      9      2     29      6      -24.11           0.000           1.000           5.000    
     10      3     29      6      -38.10           0.000           1.000           5.000    
     11      2     34     12      -165.8           0.000           1.000           6.000    
     12      3     34     12      -205.7           0.000           1.000           6.000    

     12 WELLS

 DRAIN NO.  LAYER   ROW   COL     DRAIN EL.  CONDUCTANCE         IFACE           CONDFACT        CELLGRP         
 ----------------------------------------------------------------------------------------------------------------
      1      3      1     16       19.33           1062.           6.000           240.0           1.000    
      2      3      1     16       18.90           44.42           6.000           10.00           2.000    
      3      2      2     16       19.33           1066.           6.000           240.0           2.000    
      4      2      2     16       19.72           43.77           6.000           10.00           3.000    
      5      3      3     16       18.86           1051.           6.000           240.0           3.000    
      6      3      3     16       18.04           45.20           6.000           10.00           4.000    
      7      2      4     16       18.08           1085.           6.000           240.0           4.000    
      8      2      4     16       18.12           45.17           6.000           10.00           5.000    
      9      2      5     16       18.08           1084.           6.000           240.0           5.000    
     10      2      5     16       18.04           43.56           6.000           10.00           6.000    
     11      2      6     16       18.11           1045.           6.000           240.0           6.000    
     12      2      6     16       18.17           43.61           6.000           10.00           7.000    
     13      2      7     16       18.12           1047.           6.000           240.0           7.000    
     14      2      7     16       18.06           44.33           6.000           10.00           8.000    
     15      2      8     16       18.03           1064.           6.000           240.0           8.000    
     16      2      8     16       17.99           44.29           6.000           10.00           9.000    
     17      2      9     16       17.82           1063.           6.000           240.0           9.000    
     18      2      9     16       17.66           43.59           6.000           10.00           10.00    
     19      2     10     16       17.68           1046.           6.000           240.0           10.00    
     20      2     10     16       17.69           44.55           6.000           10.00           11.00    
     21      2     11     16       17.74           1069.           6.000           240.0           11.00    
     22      2     11     16       17.77           44.55           6.000           10.00           12.00    
     23      2     12     16       17.51           1069.           6.000           240.0           12.00    
     24      2     12     16       17.25           45.11           6.000           10.00           13.00    
     25      2     13     16       17.17           1083.           6.000           240.0           13.00    
     26      2     13     16       17.09           43.50           6.000           10.00           14.00    
     27      2     14     16       17.07           1044.           6.000           240.0           14.00    
     28      2     14     16       17.04           43.66           6.000           10.00           15.00    
     29      2     15     16       16.94           1048.           6.000           240.0           15.00    
     30      2     15     16       16.83           44.63           6.000           10.00           16.00    
     31      2     16     16       16.81           1071.           6.000           240.0           16.00    
     32      2     16     16       16.78           43.53           6.000           10.00           17.00    
     33      2     17     16       16.76           1045.           6.000           240.0           17.00    
     34      2     17     16       16.75           43.64           6.000           10.00           18.00    
     35      2     18     16       16.74           1047.           6.000           240.0           18.00    
     36      2     18     16       16.73           44.83           6.000           10.00           19.00    
     37      2     19     16       16.67           1076.           6.000           240.0           19.00    
     38      2     19     16       16.60           43.57           6.000           10.00           20.00    
     39      2     20     16       16.59           1046.           6.000           240.0           20.00    
     40      2     20     16       16.58           43.84           6.000           10.00           21.00    
     41      2     21     16       16.58           1052.           6.000           240.0           21.00    
     42      2     21     16       16.57           44.26           6.000           10.00           22.00    
     43      2     22     16       16.46           1062.           6.000           240.0           22.00    
     44      2     22     16       16.36           44.19           6.000           10.00           23.00    
     45      2     23     16       16.39           1061.           6.000           240.0           23.00    
     46      2     23     16       16.41           44.10           6.000           10.00           24.00    
     47      3     24     16       16.20           1058.           6.000           240.0           24.00    
     48      3     24     16       16.00           44.37           6.000           10.00           25.00    
     49      2     25     16       15.88           1065.           6.000           240.0           25.00    
     50      2     25     16       15.76           44.41           6.000           10.00           26.00    
     51      2     26     16       15.76           1066.           6.000           240.0           26.00    
     52      2     26     16       15.76           45.22           6.000           10.00           27.00    
     53      2     27     16       15.71           1085.           6.000           240.0           27.00    
     54      2     27     16       15.66           44.72           6.000           10.00           28.00    
     55      2     28     16       15.70           1073.           6.000           240.0           28.00    
     56      2     28     16       15.74           45.47           6.000           10.00           29.00    
     57      3     29     16       15.67           1091.           6.000           240.0           29.00    
     58      3     29     16       15.60           45.32           6.000           10.00           30.00    
     59      3     30     16       15.54           1088.           6.000           240.0           30.00    
     60      3     30     16       15.48           44.00           6.000           10.00           31.00    
     61      2     31     16       15.49           1056.           6.000           240.0           31.00    
     62      2     31     16       15.49           44.06           6.000           10.00           32.00    
     63      3     32     16       15.38           1057.           6.000           240.0           32.00    
     64      3     32     16       15.28           45.06           6.000           10.00           33.00    
     65      2     33     16       15.27           1081.           6.000           240.0           33.00    
     66      2     33     16       15.26           43.99           6.000           10.00           34.00    
     67      2     34     16       15.26           1056.           6.000           240.0           34.00    
     68      2     34     16       15.27           43.53           6.000           10.00           35.00    
     69      3     35     16       15.21           1045.           6.000           240.0           35.00    
     70      3     35     16       15.16           43.98           6.000           10.00           36.00    
     71      3     36     16       15.08           1056.           6.000           240.0           36.00    
     72      3     36     16       15.01           44.67           6.000           10.00           37.00    
     73      3     37     16       14.96           1072.           6.000           240.0           37.00    
     74      3     37     16       14.91           44.29           6.000           10.00           38.00    
     75      3     38     16       14.93           1063.           6.000           240.0           38.00    
     76      3     38     16       14.95           44.32           6.000           10.00           39.00    
     77      3     39     16       14.76           1064.           6.000           240.0           39.00    
     78      3     39     16       14.58           43.63           6.000           10.00           40.00    

     78 DRAINS

 CHD NO.   LAYER   ROW   COL    START HEAD        END HEAD         SHEADFACT       EHEADFACT       CELLGRP         
 ------------------------------------------------------------------------------------------------------------------
      1      3     40      6       14.15           14.15           240.0           240.0           1.000    
      2      3     40      7       14.19           14.19           240.0           240.0           2.000    
      3      3     40      6      0.5913          0.5913           10.00           10.00           2.000    
      4      3     40      8       14.19           14.19           240.0           240.0           3.000    
      5      3     40      7      0.5913          0.5913           10.00           10.00           3.000    
      6      3     40      9       14.44           14.44           240.0           240.0           4.000    
      7      3     40      8      0.5917          0.5917           10.00           10.00           4.000    
      8      2     40     10       14.97           14.97           240.0           240.0           5.000    
      9      3     40     10       14.37           14.37           240.0           240.0           5.000    
     10      3     40      9      0.6108          0.6108           10.00           10.00           5.000    
     11      2     40     11       14.39           14.39           240.0           240.0           6.000    
     12      3     40     11       14.39           14.39           240.0           240.0           6.000    
     13      3     40     10      0.5878          0.5878           10.00           10.00           6.000    
     14      2     40     12       14.47           14.47           240.0           240.0           7.000    
     15      3     40     12       14.47           14.47           240.0           240.0           7.000    
     16      2     40     11      0.6110          0.6110           10.00           10.00           7.000    
     17      3     40     11      0.6110          0.6110           10.00           10.00           7.000    
     18      2     40     13       14.39           14.39           240.0           240.0           8.000    
     19      3     40     13       14.39           14.39           240.0           240.0           8.000    
     20      2     40     12      0.5955          0.5955           10.00           10.00           8.000    
     21      3     40     12      0.5955          0.5955           10.00           10.00           8.000    
     22      3     40     14       14.28           14.28           240.0           240.0           9.000    
     23      2     40     13      0.6030          0.6030           10.00           10.00           9.000    
     24      3     40     13      0.6030          0.6030           10.00           10.00           9.000    
     25      2     40     15       14.49           14.49           240.0           240.0           10.00    
     26      3     40     15       14.49           14.49           240.0           240.0           10.00    
     27      3     40     14      0.5879          0.5879           10.00           10.00           10.00    
     28      2     40     16       15.38           15.38           240.0           240.0           11.00    
     29      3     40     16       15.38           15.38           240.0           240.0           11.00    
     30      2     40     15      0.6191          0.6191           10.00           10.00           11.00    
     31      3     40     15      0.6191          0.6191           10.00           10.00           11.00    


     31 TIME-VARIANT SPECIFIED-HEAD CELLS
 
 SOLVING FOR HEAD 

 CELL CONVERSIONS FOR ITER.=  1  LAYER=  1  STEP=  1  PERIOD=   1   (ROW,COL)
    DRY(  1,  1)   DRY(  1,  2)   DRY(  1,  3)   DRY(  1,  4)   DRY(  1,  5)   
    DRY(  1,  6)   DRY(  1,  7)   DRY(  1,  8)   DRY(  1,  9)   DRY(  1, 10)   
    DRY(  1, 11)   DRY(  1, 12)   DRY(  1, 13)   DRY(  1, 14)   DRY(  1, 15)   
    DRY(  1, 16)   DRY(  1, 17)   DRY(  1, 18)   DRY(  1, 19)   DRY(  1, 20)   
    DRY(  2,  1)   DRY(  2,  2)   DRY(  2,  3)   DRY(  2,  4)   DRY(  2,  5)   
    DRY(  2,  6)   DRY(  2,  7)   DRY(  2,  8)   DRY(  2,  9)   DRY(  2, 10)   
    DRY(  2, 11)   DRY(  2, 12)   DRY(  2, 13)   DRY(  2, 14)   DRY(  2, 15)   
    DRY(  2, 16)   DRY(  2, 17)   DRY(  2, 18)   DRY(  2, 19)   DRY(  2, 20)   
    DRY(  3,  1)   DRY(  3,  2)   DRY(  3,  3)   DRY(  3,  4)   DRY(  3,  5)   
    DRY(  3,  6)   DRY(  3,  7)   DRY(  3,  8)   DRY(  3,  9)   DRY(  3, 10)   
    DRY(  3, 11)   DRY(  3, 12)   DRY(  3, 13)   DRY(  3, 14)   DRY(  3, 15)   
    DRY(  3, 16)   DRY(  3, 17)   DRY(  3, 18)   DRY(  3, 19)   DRY(  3, 20)   
    DRY(  4,  1)   DRY(  4,  2)   DRY(  4,  3)   DRY(  4,  4)   DRY(  4,  5)   
    DRY(  4,  6)   DRY(  4,  7)   DRY(  4,  8)   DRY(  4,  9)   DRY(  4, 10)   
    DRY(  4, 11)   DRY(  4, 12)   DRY(  4, 13)   DRY(  4, 14)   DRY(  4, 15)   
    DRY(  4, 16)   DRY(  4, 17)   DRY(  4, 18)   DRY(  4, 19)   DRY(  4, 20)   
    DRY(  5,  1)   DRY(  5,  2)   DRY(  5,  3)   DRY(  5,  4)   DRY(  5,  5)   
    DRY(  5,  6)   DRY(  5,  7)   DRY(  5,  8)   DRY(  5,  9)   DRY(  5, 10)   
    DRY(  5, 11)   DRY(  5, 12)   DRY(  5, 13)   DRY(  5, 14)   DRY(  5, 15)   
    DRY(  5, 16)   DRY(  5, 17)   DRY(  5, 18)   DRY(  5, 19)   DRY(  5, 20)   
    DRY(  6,  1)   DRY(  6,  2)   DRY(  6,  3)   DRY(  6,  4)   DRY(  6,  5)   
    DRY(  6,  6)   DRY(  6,  7)   DRY(  6,  8)   DRY(  6,  9)   DRY(  6, 10)   
    DRY(  6, 11)   DRY(  6, 12)   DRY(  6, 13)   DRY(  6, 14)   DRY(  6, 15)   
    DRY(  6, 16)   DRY(  6, 17)   DRY(  6, 18)   DRY(  6, 19)   DRY(  6, 20)   
    DRY(  7,  1)   DRY(  7,  2)   DRY(  7,  3)   DRY(  7,  4)   DRY(  7,  5)   
    DRY(  7,  6)   DRY(  7,  7)   DRY(  7,  8)   DRY(  7,  9)   DRY(  7, 10)   
    DRY(  7, 11)   DRY(  7, 12)   DRY(  7, 13)   DRY(  7, 14)   DRY(  7, 15)   
    DRY(  7, 16)   DRY(  7, 17)   DRY(  7, 18)   DRY(  7, 19)   DRY(  7, 20)   
    DRY(  8,  1)   DRY(  8,  2)   DRY(  8,  3)   DRY(  8,  4)   DRY(  8,  5)   
    DRY(  8,  6)   DRY(  8,  7)   DRY(  8,  8)   DRY(  8,  9)   DRY(  8, 10)   
    DRY(  8, 11)   DRY(  8, 12)   DRY(  8, 13)   DRY(  8, 14)   DRY(  8, 15)   
    DRY(  8, 16)   DRY(  8, 17)   DRY(  8, 18)   DRY(  8, 19)   DRY(  8, 20)   
    DRY(  9,  1)   DRY(  9,  2)   DRY(  9,  3)   DRY(  9,  4)   DRY(  9,  8)   
    DRY(  9,  9)   DRY(  9, 10)   DRY(  9, 11)   DRY(  9, 12)   DRY(  9, 13)   
    DRY(  9, 14)   DRY(  9, 15)   DRY(  9, 16)   DRY(  9, 17)   DRY(  9, 18)   
    DRY(  9, 19)   DRY(  9, 20)   DRY( 10,  1)   DRY( 10,  2)   DRY( 10,  3)   
    DRY( 10,  4)   DRY( 10,  9)   DRY( 10, 10)   DRY( 10, 11)   DRY( 10, 12)   
    DRY( 10, 13)   DRY( 10, 14)   DRY( 10, 15)   DRY( 10, 16)   DRY( 10, 17)   
    DRY( 10, 18)   DRY( 10, 19)   DRY( 10, 20)   DRY( 11,  1)   DRY( 11,  2)   
    DRY( 11,  3)   DRY( 11,  4)   DRY( 11,  9)   DRY( 11, 10)   DRY( 11, 11)   
    DRY( 11, 12)   DRY( 11, 13)   DRY( 11, 14)   DRY( 11, 15)   DRY( 11, 16)   
    DRY( 11, 17)   DRY( 11, 18)   DRY( 11, 19)   DRY( 11, 20)   DRY( 12,  1)   
    DRY( 12,  2)   DRY( 12,  3)   DRY( 12,  4)   DRY( 12,  9)   DRY( 12, 10)   
    DRY( 12, 11)   DRY( 12, 12)   DRY( 12, 13)   DRY( 12, 14)   DRY( 12, 15)   
    DRY( 12, 16)   DRY( 12, 17)   DRY( 12, 18)   DRY( 12, 19)   DRY( 12, 20)   
    DRY( 13,  1)   DRY( 13,  2)   DRY( 13,  3)   DRY( 13,  4)   DRY( 13,  9)   
    DRY( 13, 10)   DRY( 13, 11)   DRY( 13, 12)   DRY( 13, 13)   DRY( 13, 14)   
    DRY( 13, 15)   DRY( 13, 16)   DRY( 13, 17)   DRY( 13, 18)   DRY( 13, 19)   
    DRY( 13, 20)   DRY( 14,  1)   DRY( 14,  2)   DRY( 14,  3)   DRY( 14,  4)   
    DRY( 14,  9)   DRY( 14, 10)   DRY( 14, 11)   DRY( 14, 12)   DRY( 14, 13)   
    DRY( 14, 14)   DRY( 14, 15)   DRY( 14, 16)   DRY( 14, 17)   DRY( 14, 18)   
    DRY( 14, 19)   DRY( 14, 20)   DRY( 15,  1)   DRY( 15,  2)   DRY( 15,  3)   
    DRY( 15,  4)   DRY( 15,  9)   DRY( 15, 10)   DRY( 15, 11)   DRY( 15, 12)   
    DRY( 15, 13)   DRY( 15, 14)   DRY( 15, 15)   DRY( 15, 16)   DRY( 15, 17)   
    DRY( 15, 18)   DRY( 15, 19)   DRY( 15, 20)   DRY( 16,  1)   DRY( 16,  2)   
    DRY( 16,  3)   DRY( 16,  4)   DRY( 16,  9)   DRY( 16, 10)   DRY( 16, 11)   
    DRY( 16, 12)   DRY( 16, 13)   DRY( 16, 14)   DRY( 16, 15)   DRY( 16, 16)   
    DRY( 16, 17)   DRY( 16, 18)   DRY( 16, 19)   DRY( 16, 20)   DRY( 17,  1)   
    DRY( 17,  2)   DRY( 17,  3)   DRY( 17,  4)   DRY( 17,  9)   DRY( 17, 10)   
    DRY( 17, 11)   DRY( 17, 12)   DRY( 17, 13)   DRY( 17, 14)   DRY( 17, 15)   
    DRY( 17, 16)   DRY( 17, 17)   DRY( 17, 18)   DRY( 17, 19)   DRY( 17, 20)   
    DRY( 18,  1)   DRY( 18,  2)   DRY( 18,  3)   DRY( 18,  4)   DRY( 18,  9)   
    DRY( 18, 10)   DRY( 18, 11)   DRY( 18, 12)   DRY( 18, 13)   DRY( 18, 14)   
    DRY( 18, 15)   DRY( 18, 16)   DRY( 18, 17)   DRY( 18, 18)   DRY( 18, 19)   
    DRY( 18, 20)   DRY( 19,  1)   DRY( 19,  2)   DRY( 19,  3)   DRY( 19,  4)   
    DRY( 19,  9)   DRY( 19, 10)   DRY( 19, 11)   DRY( 19, 12)   DRY( 19, 13)   
    DRY( 19, 14)   DRY( 19, 15)   DRY( 19, 16)   DRY( 19, 17)   DRY( 19, 18)   
    DRY( 19, 19)   DRY( 19, 20)   DRY( 20,  1)   DRY( 20,  2)   DRY( 20,  3)   
    DRY( 20,  4)   DRY( 20,  9)   DRY( 20, 10)   DRY( 20, 11)   DRY( 20, 12)   
    DRY( 20, 13)   DRY( 20, 14)   DRY( 20, 15)   DRY( 20, 16)   DRY( 20, 17)   
    DRY( 20, 18)   DRY( 20, 19)   DRY( 20, 20)   DRY( 21,  1)   DRY( 21,  2)   
    DRY( 21,  3)   DRY( 21,  4)   DRY( 21,  9)   DRY( 21, 10)   DRY( 21, 11)   
    DRY( 21, 12)   DRY( 21, 13)   DRY( 21, 14)   DRY( 21, 15)   DRY( 21, 16)   
    DRY( 21, 17)   DRY( 21, 18)   DRY( 21, 19)   DRY( 21, 20)   DRY( 22,  1)   
    DRY( 22,  2)   DRY( 22,  3)   DRY( 22,  4)   DRY( 22,  7)   DRY( 22,  8)   
    DRY( 22,  9)   DRY( 22, 10)   DRY( 22, 11)   DRY( 22, 12)   DRY( 22, 13)   
    DRY( 22, 14)   DRY( 22, 15)   DRY( 22, 16)   DRY( 22, 17)   DRY( 22, 18)   
    DRY( 22, 19)   DRY( 22, 20)   DRY( 23,  1)   DRY( 23,  2)   DRY( 23,  3)   
    DRY( 23,  4)   DRY( 23,  5)   DRY( 23,  7)   DRY( 23,  8)   DRY( 23,  9)   
    DRY( 23, 10)   DRY( 23, 11)   DRY( 23, 12)   DRY( 23, 13)   DRY( 23, 14)   
    DRY( 23, 15)   DRY( 23, 16)   DRY( 23, 17)   DRY( 23, 18)   DRY( 23, 19)   
    DRY( 23, 20)   DRY( 24,  1)   DRY( 24,  2)   DRY( 24,  3)   DRY( 24,  4)   
    DRY( 24,  5)   DRY( 24,  6)   DRY( 24,  7)   DRY( 24,  8)   DRY( 24,  9)   
    DRY( 24, 10)   DRY( 24, 11)   DRY( 24, 12)   DRY( 24, 13)   DRY( 24, 14)   
    DRY( 24, 15)   DRY( 24, 16)   DRY( 24, 17)   DRY( 24, 18)   DRY( 24, 19)   
    DRY( 24, 20)   DRY( 25,  1)   DRY( 25,  2)   DRY( 25,  3)   DRY( 25,  4)   
    DRY( 25,  5)   DRY( 25,  6)   DRY( 25,  7)   DRY( 25,  8)   DRY( 25,  9)   
    DRY( 25, 10)   DRY( 25, 11)   DRY( 25, 12)   DRY( 25, 13)   DRY( 25, 14)   
    DRY( 25, 15)   DRY( 25, 16)   DRY( 25, 17)   DRY( 25, 18)   DRY( 25, 19)   
    DRY( 25, 20)   DRY( 26,  1)   DRY( 26,  2)   DRY( 26,  3)   DRY( 26,  4)   
    DRY( 26,  5)   DRY( 26,  6)   DRY( 26,  7)   DRY( 26,  8)   DRY( 26,  9)   
    DRY( 26, 10)   DRY( 26, 11)   DRY( 26, 12)   DRY( 26, 13)   DRY( 26, 14)   
    DRY( 26, 15)   DRY( 26, 16)   DRY( 26, 17)   DRY( 26, 18)   DRY( 26, 19)   
    DRY( 26, 20)   DRY( 27,  1)   DRY( 27,  2)   DRY( 27,  3)   DRY( 27,  4)   
    DRY( 27,  5)   DRY( 27,  6)   DRY( 27,  7)   DRY( 27,  8)   DRY( 27,  9)   
    DRY( 27, 10)   DRY( 27, 11)   DRY( 27, 12)   DRY( 27, 13)   DRY( 27, 14)   
    DRY( 27, 15)   DRY( 27, 16)   DRY( 27, 17)   DRY( 27, 18)   DRY( 27, 19)   
    DRY( 27, 20)   DRY( 28,  1)   DRY( 28,  2)   DRY( 28,  3)   DRY( 28,  4)   
    DRY( 28,  5)   DRY( 28,  6)   DRY( 28,  7)   DRY( 28,  8)   DRY( 28,  9)   
    DRY( 28, 10)   DRY( 28, 11)   DRY( 28, 12)   DRY( 28, 13)   DRY( 28, 14)   
    DRY( 28, 15)   DRY( 28, 16)   DRY( 28, 17)   DRY( 28, 18)   DRY( 28, 19)   
    DRY( 28, 20)   DRY( 29,  1)   DRY( 29,  2)   DRY( 29,  3)   DRY( 29,  4)   
    DRY( 29,  5)   DRY( 29,  6)   DRY( 29,  7)   DRY( 29,  8)   DRY( 29,  9)   
    DRY( 29, 10)   DRY( 29, 11)   DRY( 29, 12)   DRY( 29, 13)   DRY( 29, 14)   
    DRY( 29, 15)   DRY( 29, 16)   DRY( 29, 17)   DRY( 29, 18)   DRY( 29, 19)   
    DRY( 29, 20)   DRY( 30,  1)   DRY( 30,  2)   DRY( 30,  3)   DRY( 30,  4)   
    DRY( 30,  5)   DRY( 30,  6)   DRY( 30,  7)   DRY( 30,  8)   DRY( 30,  9)   
    DRY( 30, 10)   DRY( 30, 11)   DRY( 30, 12)   DRY( 30, 13)   DRY( 30, 14)   
    DRY( 30, 15)   DRY( 30, 16)   DRY( 30, 17)   DRY( 30, 18)   DRY( 30, 19)   
    DRY( 30, 20)   DRY( 31,  1)   DRY( 31,  2)   DRY( 31,  3)   DRY( 31,  4)   
    DRY( 31,  5)   DRY( 31,  6)   DRY( 31,  7)   DRY( 31,  8)   DRY( 31,  9)   
    DRY( 31, 10)   DRY( 31, 11)   DRY( 31, 12)   DRY( 31, 13)   DRY( 31, 14)   
    DRY( 31, 15)   DRY( 31, 16)   DRY( 31, 17)   DRY( 31, 18)   DRY( 31, 19)   
    DRY( 31, 20)   DRY( 32,  1)   DRY( 32,  2)   DRY( 32,  3)   DRY( 32,  4)   
    DRY( 32,  5)   DRY( 32,  6)   DRY( 32,  7)   DRY( 32,  8)   DRY( 32,  9)   
    DRY( 32, 10)   DRY( 32, 11)   DRY( 32, 12)   DRY( 32, 13)   DRY( 32, 14)   
    DRY( 32, 15)   DRY( 32, 16)   DRY( 32, 17)   DRY( 32, 18)   DRY( 32, 19)   
    DRY( 32, 20)   DRY( 33,  2)   DRY( 33,  3)   DRY( 33,  4)   DRY( 33,  5)   
    DRY( 33,  6)   DRY( 33,  7)   DRY( 33,  8)   DRY( 33,  9)   DRY( 33, 10)   
    DRY( 33, 11)   DRY( 33, 12)   DRY( 33, 13)   DRY( 33, 14)   DRY( 33, 15)   
    DRY( 33, 16)   DRY( 33, 17)   DRY( 33, 18)   DRY( 33, 19)   DRY( 33, 20)   
    DRY( 34,  3)   DRY( 34,  4)   DRY( 34,  5)   DRY( 34,  6)   DRY( 34,  7)   
    DRY( 34,  8)   DRY( 34,  9)   DRY( 34, 10)   DRY( 34, 11)   DRY( 34, 12)   
    DRY( 34, 13)   DRY( 34, 14)   DRY( 34, 15)   DRY( 34, 16)   DRY( 34, 17)   
    DRY( 34, 18)   DRY( 34, 19)   DRY( 34, 20)   DRY( 35,  4)   DRY( 35,  5)   
    DRY( 35,  6)   DRY( 35,  7)   DRY( 35,  8)   DRY( 35,  9)   DRY( 35, 10)   
    DRY( 35, 11)   DRY( 35, 12)   DRY( 35, 13)   DRY( 35, 14)   DRY( 35, 15)   
    DRY( 35, 16)   DRY( 35, 17)   DRY( 35, 18)   DRY( 35, 19)   DRY( 35, 20)   
    DRY( 36,  5)   DRY( 36,  6)   DRY( 36,  7)   DRY( 36,  8)   DRY( 36,  9)   
    DRY( 36, 10)   DRY( 36, 11)   DRY( 36, 12)   DRY( 36, 13)   DRY( 36, 14)   
    DRY( 36, 15)   DRY( 36, 16)   DRY( 36, 17)   DRY( 36, 18)   DRY( 36, 19)   
    DRY( 37,  5)   DRY( 37,  6)   DRY( 37,  7)   DRY( 37,  8)   DRY( 37,  9)   
    DRY( 37, 10)   DRY( 37, 11)   DRY( 37, 12)   DRY( 37, 13)   DRY( 37, 14)   
    DRY( 37, 15)   DRY( 37, 16)   DRY( 37, 17)   DRY( 37, 18)   DRY( 37, 19)   
    DRY( 38,  6)   DRY( 38,  7)   DRY( 38,  8)   DRY( 38,  9)   DRY( 38, 10)   
    DRY( 38, 11)   DRY( 38, 12)   DRY( 38, 13)   DRY( 38, 14)   DRY( 38, 15)   
    DRY( 38, 16)   DRY( 38, 17)   DRY( 38, 18)   DRY( 39,  6)   DRY( 39,  7)   
    DRY( 39,  8)   DRY( 39,  9)   DRY( 39, 10)   DRY( 39, 11)   DRY( 39, 12)   
    DRY( 39, 13)   DRY( 39, 14)   DRY( 39, 15)   DRY( 39, 16)   DRY( 39, 17)   
    DRY( 40,  6)   DRY( 40,  7)   DRY( 40,  8)   DRY( 40,  9)   DRY( 40, 10)   
    DRY( 40, 11)   DRY( 40, 12)   DRY( 40, 13)   DRY( 40, 14)   DRY( 40, 15)   
    DRY( 40, 16)   

 CELL CONVERSIONS FOR ITER.=  2  LAYER=  2  STEP=  1  PERIOD=   1   (ROW,COL)
    DRY(  1,  1)   DRY(  1,  2)   DRY(  1,  3)   DRY(  1,  4)   DRY(  1, 16)   
    DRY(  1, 17)   DRY(  1, 20)   DRY(  2,  1)   DRY(  2,  2)   DRY(  2,  3)   
    DRY(  3,  1)   DRY(  3,  2)   DRY(  3,  3)   DRY(  3, 15)   DRY(  3, 16)   
    DRY(  3, 20)   DRY(  4,  1)   DRY(  4,  2)   DRY(  4,  3)   DRY(  4,  6)   
    DRY(  4,  9)   DRY(  4, 17)   DRY(  4, 19)   DRY(  4, 20)   DRY(  5,  1)   
    DRY(  5,  2)   DRY(  5,  3)   DRY(  5,  5)   DRY(  5,  8)   DRY(  5, 18)   
    DRY(  6,  1)   DRY(  6,  2)   DRY(  6,  3)   DRY(  6,  6)   DRY(  6,  7)   
    DRY(  6,  8)   DRY(  6,  9)   DRY(  6, 10)   DRY(  6, 19)   DRY(  6, 20)   
    DRY(  7,  1)   DRY(  7,  7)   DRY(  7,  8)   DRY(  7,  9)   DRY(  7, 19)   
    DRY(  7, 20)   DRY(  8,  1)   DRY(  8,  5)   DRY(  8,  6)   DRY(  8,  7)   
    DRY(  8,  8)   DRY(  8,  9)   DRY(  8, 20)   DRY(  9,  1)   DRY(  9,  4)   
    DRY(  9,  8)   DRY(  9,  9)   DRY(  9, 17)   DRY(  9, 20)   DRY( 10,  1)   
    DRY( 10,  3)   DRY( 10,  9)   DRY( 10, 19)   DRY( 11,  1)   DRY( 11,  2)   
    DRY( 11,  4)   DRY( 11,  9)   DRY( 11, 20)   DRY( 12,  3)   DRY( 12,  9)   
    DRY( 12, 17)   DRY( 13,  1)   DRY( 13,  3)   DRY( 13,  9)   DRY( 13, 10)   
    DRY( 13, 19)   DRY( 14,  1)   DRY( 14,  2)   DRY( 14,  9)   DRY( 14, 17)   
    DRY( 14, 18)   DRY( 15,  2)   DRY( 15,  9)   DRY( 15, 10)   DRY( 15, 17)   
    DRY( 15, 20)   DRY( 16,  1)   DRY( 16,  2)   DRY( 16,  9)   DRY( 16, 17)   
    DRY( 16, 18)   DRY( 16, 19)   DRY( 16, 20)   DRY( 17,  1)   DRY( 17,  9)   
    DRY( 17, 10)   DRY( 17, 17)   DRY( 17, 18)   DRY( 17, 19)   DRY( 17, 20)   
    DRY( 18,  1)   DRY( 18,  9)   DRY( 18, 10)   DRY( 18, 18)   DRY( 19,  1)   
    DRY( 19,  9)   DRY( 19, 10)   DRY( 19, 17)   DRY( 19, 18)   DRY( 19, 20)   
    DRY( 20,  1)   DRY( 20,  9)   DRY( 20, 10)   DRY( 20, 18)   DRY( 20, 19)   
    DRY( 20, 20)   DRY( 21,  1)   DRY( 21,  9)   DRY( 21, 18)   DRY( 21, 19)   
    DRY( 21, 20)   DRY( 22,  1)   DRY( 22,  7)   DRY( 22,  8)   DRY( 22,  9)   
    DRY( 22, 10)   DRY( 22, 18)   DRY( 22, 19)   DRY( 22, 20)   DRY( 23,  1)   
    DRY( 23,  7)   DRY( 23,  8)   DRY( 23,  9)   DRY( 23, 10)   DRY( 23, 19)   
    DRY( 23, 20)   DRY( 24,  1)   DRY( 24,  5)   DRY( 24,  6)   DRY( 24,  7)   
    DRY( 24,  8)   DRY( 24,  9)   DRY( 24, 10)   DRY( 24, 16)   DRY( 24, 19)   
    DRY( 24, 20)   DRY( 25,  1)   DRY( 25,  4)   DRY( 25,  5)   DRY( 25,  8)   
    DRY( 25,  9)   DRY( 25, 17)   DRY( 25, 19)   DRY( 25, 20)   DRY( 26,  1)   
    DRY( 26,  2)   DRY( 26,  3)   DRY( 26, 18)   DRY( 26, 19)   DRY( 26, 20)   
    DRY( 27,  1)   DRY( 27,  2)   DRY( 27,  4)   DRY( 27, 17)   DRY( 27, 18)   
    DRY( 27, 19)   DRY( 27, 20)   DRY( 28,  1)   DRY( 28,  2)   DRY( 28,  4)   
    DRY( 28,  6)   DRY( 28, 18)   DRY( 28, 19)   DRY( 28, 20)   DRY( 29,  1)   
    DRY( 29,  2)   DRY( 29,  3)   DRY( 29,  4)   DRY( 29, 16)   DRY( 29, 19)   
    DRY( 29, 20)   DRY( 30,  1)   DRY( 30,  2)   DRY( 30,  8)   DRY( 30, 16)   
    DRY( 30, 19)   DRY( 30, 20)   DRY( 31,  1)   DRY( 31,  2)   DRY( 31,  4)   
    DRY( 31,  6)   DRY( 31,  7)   DRY( 31, 17)   DRY( 31, 18)   DRY( 31, 19)   
    DRY( 31, 20)   DRY( 32,  1)   DRY( 32,  2)   DRY( 32,  3)   DRY( 32,  7)   
    DRY( 32, 16)   DRY( 32, 18)   DRY( 32, 19)   DRY( 32, 20)   DRY( 33,  3)   
    DRY( 33,  6)   DRY( 33, 15)   DRY( 33, 18)   DRY( 33, 19)   DRY( 33, 20)   
    DRY( 34,  3)   DRY( 34,  6)   DRY( 34, 15)   DRY( 34, 17)   DRY( 34, 18)   
    DRY( 34, 19)   DRY( 34, 20)   DRY( 35,  8)   DRY( 35, 15)   DRY( 35, 16)   
    DRY( 35, 17)   DRY( 35, 18)   DRY( 35, 19)   DRY( 35, 20)   DRY( 36,  7)   
    DRY( 36,  8)   DRY( 36,  9)   DRY( 36, 14)   DRY( 36, 16)   DRY( 36, 17)   
    DRY( 36, 18)   DRY( 36, 19)   DRY( 37,  5)   DRY( 37,  6)   DRY( 37,  7)   
    DRY( 37,  8)   DRY( 37, 16)   DRY( 37, 18)   DRY( 37, 19)   DRY( 38,  6)   
    DRY( 38,  7)   DRY( 38,  9)   DRY( 38, 10)   DRY( 38, 16)   DRY( 38, 18)   
    DRY( 39,  6)   DRY( 39,  7)   DRY( 39,  8)   DRY( 39,  9)   DRY( 39, 15)   
    DRY( 39, 16)   DRY( 39, 17)   DRY( 40,  6)   DRY( 40,  7)   DRY( 40,  9)   

 CELL CONVERSIONS FOR ITER.=  3  LAYER=  2  STEP=  1  PERIOD=   1   (ROW,COL)
    DRY( 40,  8)   

 CELL CONVERSIONS FOR ITER.=  6  LAYER=  2  STEP=  1  PERIOD=   1   (ROW,COL)
    DRY( 40, 14)   

 OUTPUT CONTROL FOR STRESS PERIOD    1   TIME STEP   1
    PRINT BUDGET
    SAVE HEAD FOR ALL LAYERS
    SAVE BUDGET
 UBDSV2 SAVING "   CONSTANT HEAD" ON UNIT  40 AT TIME STEP  1, STRESS PERIOD   1
 UBDSV1 SAVING "FLOW RIGHT FACE " ON UNIT  40 AT TIME STEP  1, STRESS PERIOD   1
 UBDSV1 SAVING "FLOW FRONT FACE " ON UNIT  40 AT TIME STEP  1, STRESS PERIOD   1
 UBDSV1 SAVING "FLOW LOWER FACE " ON UNIT  40 AT TIME STEP  1, STRESS PERIOD   1
 UBDSV4 SAVING "           WELLS" ON UNIT  40 AT TIME STEP  1, STRESS PERIOD   1
 UBDSV4 SAVING "          DRAINS" ON UNIT  40 AT TIME STEP  1, STRESS PERIOD   1
 UBDSV3 SAVING "        RECHARGE" ON UNIT  40 AT TIME STEP  1, STRESS PERIOD   1


 ***Link-MT3DMS Package***
 OPENING LINK-MT3DMS OUTPUT FILE: A.hff                                                                                                                                                                                                   
 ON UNIT NUMBER:   333
 FILE TYPE: UNFORMATTED
 HEADER OPTION: STANDARD
 ***Link-MT3DMS Package***


 SAVING SATURATED THICKNESS AND FLOW TERMS ON UNIT  333 FOR MT3DMS
 BY THE LINK-MT3DMS PACKAGE V6.3 AT TIME STEP    1, STRESS PERIOD    1


 HEAD WILL BE SAVED ON UNIT    4 AT END OF TIME STEP   1, STRESS PERIOD    1
1
  VOLUMETRIC BUDGET FOR ENTIRE MODEL AT END OF TIME STEP  1 IN STRESS PERIOD   1
  ------------------------------------------------------------------------------

     CUMULATIVE VOLUMES      L**3       RATES FOR THIS TIME STEP      L**3/T
     ------------------                 ------------------------

           IN:                                      IN:
           ---                                      ---
             STORAGE =           0.0000               STORAGE =           0.0000
       CONSTANT HEAD =         193.3297         CONSTANT HEAD =         193.3297
               WELLS =           0.0000                 WELLS =           0.0000
              DRAINS =           0.0000                DRAINS =           0.0000
            RECHARGE =        7958.7231              RECHARGE =        7958.7231

            TOTAL IN =        8152.0527              TOTAL IN =        8152.0527

          OUT:                                     OUT:
          ----                                     ----
             STORAGE =           0.0000               STORAGE =           0.0000
       CONSTANT HEAD =        2870.9424         CONSTANT HEAD =        2870.9424
               WELLS =        1619.2421                 WELLS =        1619.2421
              DRAINS =        3661.8682                DRAINS =        3661.8682
            RECHARGE =           0.0000              RECHARGE =           0.0000

           TOTAL OUT =        8152.0527             TOTAL OUT =        8152.0527

            IN - OUT =           0.0000              IN - OUT =           0.0000

 PERCENT DISCREPANCY =           0.00     PERCENT DISCREPANCY =           0.00






          TIME SUMMARY AT END OF TIME STEP   1 IN STRESS PERIOD    1
                    SECONDS     MINUTES      HOURS       DAYS        YEARS
                    -----------------------------------------------------------
   TIME STEP LENGTH  86400.      1440.0      24.000      1.0000     2.73785E-03
 STRESS PERIOD TIME  86400.      1440.0      24.000      1.0000     2.73785E-03
         TOTAL TIME  86400.      1440.0      24.000      1.0000     2.73785E-03
1

 HEAD OBS#    2, ID hed2         IS DRY -- OMIT (OBS1BAS6HFM)

 HEAD OBS#    5, ID hed5         IS DRY -- OMIT (OBS1BAS6HFM)

 HEAD OBS#   10, ID hed10        IS DRY -- OMIT (OBS1BAS6HFM)

     3 OF   64 OBSERVATIONS OMITTED.  EXECUTION STOPS IF NUMBER OF REMAINING
 OBSERVATIONS IS LESS THAN OR EQUAL TO NUMBER OF PARAMETERS

 HEADS AT DRAIN CELLS ARE BELOW THE BOTTOM OF THE DRAIN AT THE CELLS LISTED
 BELOW.  THESE CONDITIONS DIMINISH THE IMPACT OF THE OBSERVATION ON ESTIMATES
 OF ALL PARAMETERS.  (SEE TEXT FOR MORE INFORMATION).

 OBS#     18, ID dr4         , TIME STEP     1
    LAYER   ROW  COLUMN
      2     11     16
      1 OF THE      3 REACHES OR CELLS USED TO SIMULATE THE GAIN OR LOSS ARE
                      AFFECTED.

 OBS#     19, ID dr5         , TIME STEP     1
    LAYER   ROW  COLUMN
      2     11     16
      2     11     16
      2 OF THE      3 REACHES OR CELLS USED TO SIMULATE THE GAIN OR LOSS ARE
                      AFFECTED.

 OBS#     31, ID dr17        , TIME STEP     1
    LAYER   ROW  COLUMN
      2     23     16
      1 OF THE      3 REACHES OR CELLS USED TO SIMULATE THE GAIN OR LOSS ARE
                      AFFECTED.

 OBS#     49, ID dr35        , TIME STEP     1
    LAYER   ROW  COLUMN
      2      2     16
      1 OF THE      3 REACHES OR CELLS USED TO SIMULATE THE GAIN OR LOSS ARE
                      AFFECTED.

 OBS#     50, ID dr36        , TIME STEP     1
    LAYER   ROW  COLUMN
      2      2     16
      2      2     16
      2 OF THE      3 REACHES OR CELLS USED TO SIMULATE THE GAIN OR LOSS ARE
                      AFFECTED.

 DATA AT HEAD LOCATIONS

        OBSERVATION     OBSER-     SIMUL.                          WEIGHTED
   OBS#    NAME         VATION     EQUIV.    RESIDUAL  WEIGHT**.5  RESIDUAL
                          *          *
      1 hed1            23.0       23.4     -0.419       1.30     -0.546    
      2 hed2            19.9         OMITTED
      2 hed2            19.9       20.2     -0.311       1.27     -0.393    
      3 hed3            23.6       24.1     -0.525       1.30     -0.684    
      4 hed4            18.4       19.1     -0.684       1.16     -0.794    
      5 hed5            17.6         OMITTED
      5 hed5            17.6       17.9     -0.295       1.27     -0.373    
      6 hed6            17.5       17.9     -0.362       1.27     -0.458    
      7 hed7            16.1       16.4     -0.251       1.30     -0.326    
      8 hed8            22.4       22.5     -0.572E-01   1.02     -0.585E-01
      9 hed9            20.2       20.2      0.382E-01   1.02      0.391E-01
     10 hed10           14.3         OMITTED
     10 hed10           14.3       15.7      -1.44      0.438     -0.629    
     11 hed11           17.2       17.7     -0.462       1.27     -0.584    
     12 hed12           14.5       16.0      -1.47      0.438     -0.644    
     13 hed13           22.4       23.0     -0.636      0.311E-01 -0.198E-01

 * THE OBSERVATION (AND CORRESPONDING SIMULATED EQUIVALENT) IS HEAD OR TEMPORAL
   CHANGE IN HEAD, AS SPECIFIED IN THE "HOB" INPUT FILE.  NEGATIVE TEMPORAL
   CHANGES INDICATE DRAWDOWN.

 STATISTICS FOR HEAD RESIDUALS :
 MAXIMUM WEIGHTED RESIDUAL  : 0.391E-01 OBS#      9
 MINIMUM WEIGHTED RESIDUAL  :-0.794     OBS#      4
 AVERAGE WEIGHTED RESIDUAL  :-0.421    
 # RESIDUALS >= 0. :      1
 # RESIDUALS < 0.  :     12
 NUMBER OF RUNS  :    3  IN   13 OBSERVATIONS

 SUM OF SQUARED WEIGHTED RESIDUALS (HEADS ONLY)   3.1645    

 DATA FOR FLOWS REPRESENTED USING THE DRAIN PACKAGE

       OBSERVATION      MEAS.      CALC.                          WEIGHTED
  OBS#    NAME          FLOW       FLOW     RESIDUAL  WEIGHT**.5  RESIDUAL

    14 dr0            -84.5      -119.       34.6      0.153E-02  0.530E-01
    15 dr1            -56.3      -84.5       28.1      0.149E-02  0.418E-01
    16 dr2            -53.1      -91.1       38.0      0.144E-02  0.549E-01
    17 dr3            -80.6      -118.       37.8      0.153E-02  0.578E-01
    18 dr4            -6.53      -3.95      -2.59      0.682E-03 -0.176E-02
    19 dr5            -27.8      -35.2       7.38      0.107E-02  0.792E-02
    20 dr6            -109.      -144.       35.5      0.124E-02  0.439E-01
    21 dr7            -75.5      -96.5       21.0      0.157E-02  0.329E-01
    22 dr8            -74.2      -93.1       18.8      0.157E-02  0.296E-01
    23 dr9            -92.3      -116.       23.7      0.144E-02  0.343E-01
    24 dr10           -73.5      -87.9       14.5      0.157E-02  0.227E-01
    25 dr11           -49.7      -53.5       3.79      0.140E-02  0.532E-02
    26 dr12           -50.3      -53.7       3.35      0.140E-02  0.470E-02
    27 dr13           -54.9      -58.7       3.86      0.149E-02  0.574E-02
    28 dr14           -26.1      -17.9      -8.17      0.103E-02 -0.845E-02
    29 dr15           -39.5      -35.5      -3.91      0.128E-02 -0.499E-02
    30 dr16           -26.4      -16.1      -10.3      0.103E-02 -0.106E-01
    31 dr17           -33.1      -29.4      -3.65      0.115E-02 -0.422E-02
    32 dr18           -118.      -148.       29.8      0.107E-02  0.321E-01
    33 dr19           -109.      -137.       27.8      0.120E-02  0.332E-01
    34 dr20           -89.5      -110.       20.6      0.149E-02  0.306E-01
    35 dr21           -66.7      -76.5       9.75      0.157E-02  0.153E-01
    36 dr22           -44.9      -46.9       2.00      0.136E-02  0.272E-02
    37 dr23           -72.5      -84.9       12.4      0.157E-02  0.195E-01
    38 dr24           -55.6      -61.2       5.63      0.149E-02  0.836E-02
    39 dr25           -57.2      -64.6       7.38      0.149E-02  0.110E-01
    40 dr26           -78.9      -92.9       13.9      0.157E-02  0.219E-01
    41 dr27           -48.4      -48.7      0.265      0.140E-02  0.372E-03
    42 dr28           -36.0      -30.5      -5.56      0.120E-02 -0.665E-02
    43 dr29           -54.2      -56.5       2.33      0.144E-02  0.336E-02
    44 dr30           -50.4      -66.3       15.9      0.140E-02  0.222E-01
    45 dr31           -76.0      -89.3       13.3      0.157E-02  0.209E-01
    46 dr32           -59.9      -73.8       13.9      0.153E-02  0.213E-01
    47 dr33           -169.      -235.       66.6      0.263E-03  0.175E-01
    48 dr34           -17.0      -17.3      0.319      0.876E-03  0.280E-03
    49 dr35           -22.6      -22.1     -0.435      0.955E-03 -0.415E-03
    50 dr36           -50.2      -72.0       21.8      0.140E-02  0.305E-01
    51 dr37           -298.      -413.       116.      0.376E-04  0.434E-02
    52 dr38           -191.      -269.       78.3      0.113E-03  0.883E-02
    53 dr39           -138.      -191.       53.9      0.720E-03  0.388E-01

 STATISTICS FOR DRAIN FLOW RESIDUALS :
 MAXIMUM WEIGHTED RESIDUAL  : 0.578E-01 OBS#     17
 MINIMUM WEIGHTED RESIDUAL  :-0.106E-01 OBS#     30
 AVERAGE WEIGHTED RESIDUAL  : 0.175E-01
 # RESIDUALS >= 0. :     33
 # RESIDUALS < 0.  :      7
 NUMBER OF RUNS:      9  IN     40 OBSERVATIONS

 SUM OF SQUARED WEIGHTED RESIDUALS (DRAIN FLOWS ONLY)  0.25501E-01

 DATA FOR FLOW OBSERVATIONS AT BOUNDARIES REPRESENTED AS CONSTANT-HEAD

       OBSERVATION      MEAS.      CALC.                          WEIGHTED
  OBS#    NAME          FLOW       FLOW     RESIDUAL  WEIGHT**.5  RESIDUAL

    54 ch0            -50.4      -112.       61.3      0.991E-03  0.607E-01
    55 ch1            -22.6      -114.       91.6      0.675E-03  0.618E-01
    56 ch2            -50.2      -13.0      -37.3      0.991E-03 -0.369E-01
    57 ch3            -298.       193.      -491.      0.266E-04 -0.130E-01
    58 ch4            -913.      -543.      -370.      0.167E-02 -0.620    
    59 ch5            -883.      -511.      -371.      0.173E-02 -0.643    
    60 ch6           -0.102E+04  -540.      -478.      0.123E-02 -0.587    
    61 ch7            -729.      -354.      -374.      0.202E-02 -0.757    
    62 ch8            -685.      -320.      -365.      0.208E-02 -0.760    
    63 ch9            -50.4      -222.       172.      0.687E-03  0.118    
    64 ch10           -22.6      -141.       119.      0.581E-03  0.691E-01

 STATISTICS FOR CONSTANT-HEAD BOUNDARY FLOW RESIDUALS :
 MAXIMUM WEIGHTED RESIDUAL  : 0.118     OBS#     63
 MINIMUM WEIGHTED RESIDUAL  :-0.760     OBS#     62
 AVERAGE WEIGHTED RESIDUAL  :-0.282    
 # RESIDUALS >= 0. :      4
 # RESIDUALS < 0.  :      7
 NUMBER OF RUNS  :    3  IN   11 OBSERVATIONS

 SUM OF SQUARED WEIGHTED RESIDUALS
   (CONSTANT-HEAD BOUNDARY FLOWS ONLY)   2.3209    

 SUM OF SQUARED WEIGHTED RESIDUALS (ALL DEPENDENT VARIABLES)   5.5109    

 STATISTICS FOR ALL RESIDUALS :
 AVERAGE WEIGHTED RESIDUAL  :-0.123E+00
 # RESIDUALS >= 0. :     38
 # RESIDUALS < 0.  :     26
 NUMBER OF RUNS  :   14  IN   64 OBSERVATIONS

 INTERPRETING THE CALCULATED RUNS STATISTIC VALUE OF     -4.54    
 NOTE: THE FOLLOWING APPLIES ONLY IF 
        # RESIDUALS >= 0 . IS GREATER THAN 10 AND 
        # RESIDUALS < 0.   IS GREATER THAN 10
 THE NEGATIVE VALUE MAY INDICATE TOO FEW RUNS:
    IF THE VALUE IS LESS THAN -1.28, THERE IS LESS THAN A 10 PERCENT
       CHANCE THE VALUES ARE RANDOM,
    IF THE VALUE IS LESS THAN -1.645, THERE IS LESS THAN A 5 PERCENT
       CHANCE THE VALUES ARE RANDOM,
    IF THE VALUE IS LESS THAN -1.96, THERE IS LESS THAN A 2.5 PERCENT
       CHANCE THE VALUES ARE RANDOM.


 ORDERED DEPENDENT-VARIABLE WEIGHTED RESIDUALS
 NUMBER OF RESIDUALS INCLUDED:        61
    -0.794     -0.760     -0.757     -0.684     -0.644     -0.643     -0.620    
    -0.587     -0.584     -0.546     -0.458     -0.326     -0.585E-01 -0.369E-01
    -0.198E-01 -0.130E-01 -0.106E-01 -0.845E-02 -0.665E-02 -0.499E-02 -0.422E-02
    -0.176E-02 -0.415E-03  0.280E-03  0.372E-03  0.272E-02  0.336E-02  0.434E-02
     0.470E-02  0.532E-02  0.574E-02  0.792E-02  0.836E-02  0.883E-02  0.110E-01
     0.153E-01  0.175E-01  0.195E-01  0.209E-01  0.213E-01  0.219E-01  0.222E-01
     0.227E-01  0.296E-01  0.305E-01  0.306E-01  0.321E-01  0.329E-01  0.332E-01
     0.343E-01  0.388E-01  0.391E-01  0.418E-01  0.439E-01  0.530E-01  0.549E-01
     0.578E-01  0.607E-01  0.618E-01  0.691E-01  0.118    

 CORRELATION BETWEEN ORDERED WEIGHTED RESIDUALS AND NORMAL ORDER STATISTICS
 FOR OBSERVATIONS =    0.614    

 --------------------------------------------------------------------------
 COMMENTS ON THE INTERPRETATION OF THE CORRELATION BETWEEN
 WEIGHTED RESIDUALS AND NORMAL ORDER STATISTICS:

 The critical value for correlation at the 5% significance level is 0.964

 IF the reported CORRELATION is GREATER than the 5% critical value, ACCEPT
 the hypothesis that the weighted residuals are INDEPENDENT AND NORMALLY
 DISTRIBUTED at the 5% significance level.  The probability that this   
 conclusion is wrong is less than 5%.

 IF the reported correlation IS LESS THAN the 5% critical value REJECT the
 hypothesis that the weighted residuals are INDEPENDENT AND NORMALLY
 DISTRIBUTED at the 5% significance level.

 The analysis can also be done using the 10% significance level.
 The associated critical value is 0.970
 --------------------------------------------------------------------------

