                                  MODFLOW-2000
      U.S. GEOLOGICAL SURVEY MODULAR FINITE-DIFFERENCE GROUND-WATER FLOW MODEL
                           VERSION 1.19.01 03/25/2010


 This model run produced both GLOBAL and LIST files.  This is the LIST file.

 
 #GMS MODFLOW Simulation                                                         
 #01 June 2023                                                                   
 THE FREE FORMAT OPTION HAS BEEN SELECTED
    5 LAYERS        50 ROWS        50 COLUMNS
    1 STRESS PERIOD(S) IN SIMULATION

 BAS6 -- BASIC PACKAGE, VERSION 6, 1/11/2000 INPUT READ FROM UNIT  703
         25 ELEMENTS IN IR ARRAY ARE USED BY BAS

 DRN6 -- DRAIN PACKAGE, VERSION 6, 1/11/2000 INPUT READ FROM UNIT  710
 #GMS_HDF5_01
 No named parameters
 MAXIMUM OF    161 ACTIVE DRAINS AT ONE TIME
 CELL-BY-CELL FLOWS WILL BE SAVED ON UNIT  740
 AUXILIARY DRAIN VARIABLE: IFACE           
 AUXILIARY DRAIN VARIABLE: CONDFACT        
 AUXILIARY DRAIN VARIABLE: CELLGRP         
       1288 ELEMENTS IN RX ARRAY ARE USED BY DRN

 EVT6 -- EVAPOTRANSPIRATION PACKAGE, VERSION 6, 12/14/2000
         INPUT READ FROM UNIT  712
 #GMS_HDF5_01
 No named parameters
 OPTION 1 -- EVAPOTRANSPIRATION FROM TOP LAYER
 CELL-BY-CELL FLOWS WILL BE SAVED ON UNIT  740
       7500 ELEMENTS IN RX ARRAY ARE USED BY EVT
       2500 ELEMENTS IN IR ARRAY ARE USED BY EVT

 GHB6 -- GHB PACKAGE, VERSION 6, 1/11/2000 INPUT READ FROM UNIT  711
 #GMS_HDF5_01
 No named parameters
 MAXIMUM OF    510 ACTIVE GHB CELLS AT ONE TIME
 CELL-BY-CELL FLOWS WILL BE SAVED ON UNIT  740
 AUXILIARY GHB VARIABLE: IFACE           
 AUXILIARY GHB VARIABLE: CONDFACT        
 AUXILIARY GHB VARIABLE: CELLGRP         
       4080 ELEMENTS IN RX ARRAY ARE USED BY GHB

 RCH6 -- RECHARGE PACKAGE, VERSION 6, 1/11/2000 INPUT READ FROM UNIT  716
 #GMS_HDF5_01
 No named parameters
 OPTION 3 -- RECHARGE TO HIGHEST ACTIVE NODE IN EACH VERTICAL COLUMN
 CELL-BY-CELL FLOWS WILL BE SAVED ON UNIT  740
       2500 ELEMENTS IN RX ARRAY ARE USED BY RCH
       2500 ELEMENTS IN IR ARRAY ARE USED BY RCH

 STRM -- STREAM PACKAGE, VERSION 6, 6/98 INPUT READ FROM UNIT  717
 No named parameters
 MAXIMUM OF    109 ACTIVE STREAM NODES AT ONE TIME
 NUMBER OF STREAM SEGMENTS IS     30
 NUMBER OF STREAM TRIBUTARIES IS      1
 STREAM STAGES WILL BE CALCULATED USING A CONSTANT OF 86400.0000
 CELL BUDGETS WILL BE SAVED ON UNITS  740 AND    0
       1229 ELEMENTS IN RX ARRAY ARE USED FOR STREAMS
        635 ELEMENTS IN IR ARRAY ARE USED FOR STREAMS

 CHD6 -- TIME-VARIANT SPECIFIED-HEAD PACKAGE, VERSION 6, 1/11/2000
 INPUT READ FROM UNIT  713
 #GMS_HDF5_01
 No named parameters
 MAXIMUM OF    350 TIME-VARIANT SPECIFIED-HEAD CELLS AT ONE TIME
 AUXILIARY CHD VARIABLE: SHEADFACT       
 AUXILIARY CHD VARIABLE: EHEADFACT       
 AUXILIARY CHD VARIABLE: CELLGRP         
       2800 ELEMENTS IN RX ARRAY ARE USED BY CHD

      19397  ELEMENTS OF RX ARRAY USED OUT OF      19397
          0  ELEMENTS OF RZ ARRAY USED OUT OF          1
       5660  ELEMENTS OF IR ARRAY USED OUT OF       5660
1
 #GMS MODFLOW Simulation                                                         
 #01 June 2023                                                                   

                1           2           3           4           5           6           7           8           9          10
               11          12          13          14          15          16          17          18          19          20
               21          22          23          24          25          26          27          28          29          30
               31          32          33          34          35          36          37          38          39          40
               41          42          43          44          45          46          47          48          49          50
 ............................................................................................................................
   1            1           1           1           1           1           1           1           1           1           1
                1           1           1           1           1           1           1           1           1           1
                1           1           1           1           1           1           1           1           1           1
                1           1           1           1           1           1           1           1           1           1
                1           1           1           1           1           1           1           1           1           0
   2            1           1           1           1           1           1           1           1           1           1
                1           1           1           1           1           1           1           1           1           1
                1           1           1           1           1           1           1           1           1           1
                1           1           1           1           1           1           1           1           1           1
                1           1           1           1           1           1           1           1           1           0
   3            1           1           1           1           1           1           1           1           1           1
                1           1           1           1           1           1           1           1           1           1
                1           1           1           1           1           1           1           1           1           1
                1           1           1           1           1           1           1           1           1           1
                1           1           1           1           1           1           1           1           0           0
   4            1           1           1           1           1           1           1           1           1           1
                1           1           1           1           1           1           1           1           1           1
                1           1           1           1           1           1           1           1           1           1
                1           1           1           1           1           1           1           1           1           1
                1           1           1           1           1           1           1           1           0           0
   5            1           1           1           1           1           1           1           1           1           1
                1           1           1           1           1           1           1           1           1           1
                1           1           1           1           1           1           1           1           1           1
                1           1           1           1           1           1           1           1           1           1
                1           1           1           1           1           1           1           1           0           0
   6            1           1           1           1           1           1           1           1           1           1
                1           1           1           1           1           1           1           1           1           1
                1           1           1           1           1           1           1           1           1           1
                1           1           1           1           1           1           1           1           1           1
                1           1           1           1           1           1           1           1           0           0
   7            1           1           1           1           1           1           1           1           1           1
                1           1           1           1           1           1           1           1           1           1
                1           1           1           1           1           1           1           1           1           1
                1           1           1           1           1           1           1           1           1           1
                1           1           1           1           1           1           1           1           0           0
   8            1           1           1           1           1           1           1           1           1           1
                1           1           1           1           1           1           1           1           1           1
                1           1           1           1           1           1           1           1           1           1
                1           1           1           1           1           1           1           1           1           1
                1           1           1           1           1           1           1           1           1           0
   9            1           1           1           1           1           1           1           1           1           1
                1           1           1           1           1           1           1           1           1           1
                1           1           1           1           1           1           1           1           1           1
                1           1           1           1           1           1           1           1           1           1
                1           1           1           1           1           1           1           1           1           0
  10            1           1           1           1           1           1           1           1           1           1
                1           1           1           1           1           1           1           1           1           1
                1           1           1           1           1           1           1           1           1           1
                1           1           1           1           1           1           1           1           1           1
                1           1           1           1           1           1           1           1           1           0
  11            1           1           1           1           1           1           1           1           1           1
                1           1           1           1           1           1           1           1           1           1
                1           1           1           1           1           1           1           1           1           1
                1           1           1           1           1           1           1           1           1           1
                1           1           1           1           1           1           1           1           1           0
  12            1           1           1           1           1           1           1           1           1           1
                1           1           1           1           1           1           1           1           1           1
                1           1           1           1           1           1           1           1           1           1
                1           1           1           1           1           1           1           1           1           1
                1           1           1           1           1           1           1           1           1           0
  13            1           1           1           1           1           1           1           1           1           1
                1           1           1           1           1           1           1           1           1           1
                1           1           1           1           1           1           1           1           1           1
                1           1           1           1           1           1           1           1           1           1
                1           1           1           1           1           1           1           1           1           0
  14            1           1           1           1           1           1           1           1           1           1
                1           1           1           1           1           1           1           1           1           1
                1           1           1           1           1           1           1           1           1           1
                1           1           1           1           1           1           1           1           1           1
                1           1           1           1           1           1           1           1           1           0
  15            1           1           1           1           1           1           1           1           1           1
                1           1           1           1           1           1           1           1           1           1
                1           1           1           1           1           1           1           1           1           1
                1           1           1           1           1           1           1           1           1           1
                1           1           1           1           1           1           1           1           1           0
  16            1           1           1           1           1           1           1           1           1           1
                1           1           1           1           1           1           1           1           1           1
                1           1           1           1           1           1           1           1           1           1
                1           1           1           1           1           1           1           1           1           1
                1           1           1           1           1           1           1           1           0           0
  17            1           1           1           1           1           1           1           1           1           1
                1           1           1           1           1           1           1           1           1           1
                1           1           1           1           1           1           1           1           1           1
                1           1           1           1           1           1           1           1           1           1
                1           1           1           1           1           1           1           1           0           0
  18            1           1           1           1           1           1           1           1           1           1
                1           1           1           1           1           1           1           1           1           1
                1           1           1           1           1           1           1           1           1           1
                1           1           1           1           1           1           1           1           1           1
                1           1           1           1           1           1           1           1           0           0
  19            1           1           1           1           1           1           1           1           1           1
                1           1           1           1           1           1           1           1           1           1
                1           1           1           1           1           1           1           1           1           1
                1           1           1           1           1           1           1           1           1           1
                1           1           1           1           1           1           1           0           0           0
  20            1           1           1           1           1           1           1           1           1           1
                1           1           1           1           1           1           1           1           1           1
                1           1           1           1           1           1           1           1           1           1
                1           1           1           1           1           1           1           1           1           1
                1           1           1           1           1           1           0           0           0           0
  21            1           1           1           1           1           1           1           1           1           1
                1           1           1           1           1           1           1           1           1           1
                1           1           1           1           1           1           1           1           1           1
                1           1           1           1           1           1           1           1           1           1
                1           1           1           1           1           1           0           0           0           0
  22            1           1           1           1           1           1           1           1           1           1
                1           1           1           1           1           1           1           1           1           1
                1           1           1           1           1           1           1           1           1           1
                1           1           1           1           1           1           1           1           1           1
                1           1           1           1           1           1           0           0           0           0
  23            1           1           1           1           1           1           1           1           1           1
                1           1           1           1           1           1           1           1           1           1
                1           1           1           1           1           1           1           1           1           1
                1           1           1           1           1           1           1           1           1           1
                1           1           1           1           1           0           0           0           0           0
  24            1           1           1           1           1           1           1           1           1           1
                1           1           1           1           1           1           1           1           1           1
                1           1           1           1           1           1           1           1           1           1
                1           1           1           1           1           1           1           1           1           1
                1           1           1           1           1           0           0           0           0           0
  25            1           1           1           1           1           1           1           1           1           1
                1           1           1           1           1           1           1           1           1           1
                1           1           1           1           1           1           1           1           1           1
                1           1           1           1           1           1           1           1           1           1
                1           1           1           1           1           0           0           0           0           0
  26            1           1           1           1           1           1           1           1           1           1
                1           1           1           1           1           1           1           1           1           1
                1           1           1           1           1           1           1           1           1           1
                1           1           1           1           1           1           1           1           1           1
                1           1           1           1           1           0           0           0           0           0
  27            1           1           1           1           1           1           1           1           1           1
                1           1           1           1           1           1           1           1           1           1
                1           1           1           1           1           1           1           1           1           1
                1           1           1           1           1           1           1           1           1           1
                1           1           1           1           1           0           0           0           0           0
  28            1           1           1           1           1           1           1           1           1           1
                1           1           1           1           1           1           1           1           1           1
                1           1           1           1           1           1           1           1           1           1
                1           1           1           1           1           1           1           1           1           1
                1           1           1           1           1           0           0           0           0           0
  29            1           1           1           1           1           1           1           1           1           1
                1           1           1           1           1           1           1           1           1           1
                1           1           1           1           1           1           1           1           1           1
                1           1           1           1           1           1           1           1           1           1
                1           1           1           1           1           0           0           0           0           0
  30            1           1           1           1           1           1           1           1           1           1
                1           1           1           1           1           1           1           1           1           1
                1           1           1           1           1           1           1           1           1           1
                1           1           1           1           1           1           1           1           1           1
                1           1           1           1           1           0           0           0           0           0
  31            1           1           1           1           1           1           1           1           1           1
                1           1           1           1           1           1           1           1           1           1
                1           1           1           1           1           1           1           1           1           1
                1           1           1           1           1           1           1           1           1           1
                1           1           1           1           1           0           0           0           0           0
  32            1           1           1           1           1           1           1           1           1           1
                1           1           1           1           1           1           1           1           1           1
                1           1           1           1           1           1           1           1           1           1
                1           1           1           1           1           1           1           1           1           1
                1           1           1           1           0           0           0           0           0           0
  33            1           1           1           1           1           1           1           1           1           1
                1           1           1           1           1           1           1           1           1           1
                1           1           1           1           1           1           1           1           1           1
                1           1           1           1           1           1           1           1           1           1
                1           1           1           1           0           0           0           0           0           0
  34            1           1           1           1           1           1           1           1           1           1
                1           1           1           1           1           1           1           1           1           1
                1           1           1           1           1           1           1           1           1           1
                1           1           1           1           1           1           1           1           1           1
                1           1           1           1           0           0           0           0           0           0
  35            1           1           1           1           1           1           1           1           1           1
                1           1           1           1           1           1           1           1           1           1
                1           1           1           1           1           1           1           1           1           1
                1           1           1           1           1           1           1           1           1           1
                1           1           1           1           0           0           0           0           0           0
  36            1           1           1           1           1           1           1           1           1           1
                1           1           1           1           1           1           1           1           1           1
                1           1           1           1           1           1           1           1           1           1
                1           1           1           1           1           1           1           1           1           1
                1           1           1           1           0           0           0           0           0           0
  37            1           1           1           1           1           1           1           1           1           1
                1           1           1           1           1           1           1           1           1           1
                1           1           1           1           1           1           1           1           1           1
                1           1           1           1           1           1           1           1           1           1
                1           1           1           0           0           0           0           0           0           0
  38            1           1           1           1           1           1           1           1           1           1
                1           1           1           1           1           1           1           1           1           1
                1           1           1           1           1           1           1           1           1           1
                1           1           1           1           1           1           1           1           1           1
                1           1           1           0           0           0           0           0           0           0
  39            1           1           1           1           1           1           1           1           1           1
                1           1           1           1           1           1           1           1           1           1
                1           1           1           1           1           1           1           1           1           1
                1           1           1           1           1           1           1           1           1           1
                1           1           0           0           0           0           0           0           0           0
  40            1           1           1           1           1           1           1           1           1           1
                1           1           1           1           1           1           1           1           1           1
                1           1           1           1           1           1           1           1           1           1
                1           1           1           1           1           1           1           1           1           1
                1           1           0           0           0           0           0           0           0           0
  41            1           1           1           1           1           1           1           1           1           1
                1           1           1           1           1           1           1           1           1           1
                1           1           1           1           1           1           1           1           1           1
                1           1           1           1           1           1           1           1           1           1
                1           0           0           0           0           0           0           0           0           0
  42            1           1           1           1           1           1           1           1           1           1
                1           1           1           1           1           1           1           1           1           1
                1           1           1           1           1           1           1           1           1           1
                1           1           1           1           1           1           1           1           1           1
                1           0           0           0           0           0           0           0           0           0
  43            1           1           1           1           1           1           1           1           1           1
                1           1           1           1           1           1           1           1           1           1
                1           1           1           1           1           1           1           1           1           1
                1           1           1           1           1           1           1           1           1           1
                1           0           0           0           0           0           0           0           0           0
  44            1           1           1           1           1           1           1           1           1           1
                1           1           1           1           1           1           1           1           1           1
                1           1           1           1           1           1           1           1           1           1
                1           1           1           1           1           1           1           1           1           1
                0           0           0           0           0           0           0           0           0           0
  45            1           1           1           1           1           1           1           1           1           1
                1           1           1           1           1           1           1           1           1           1
                1           1           1           1           1           1           1           1           1           1
                1           1           1           1           1           1           1           1           1           1
                0           0           0           0           0           0           0           0           0           0
  46            1           1           1           1           1           1           1           1           1           1
                1           1           1           1           1           1           1           1           1           1
                1           1           1           1           1           1           1           1           1           1
                1           1           1           1           1           1           1           1           1           1
                0           0           0           0           0           0           0           0           0           0
  47            1           1           1           1           1           1           1           1           1           1
                1           1           1           1           1           1           1           1           1           1
                1           1           1           1           1           1           1           1           1           1
                1           1           1           1           1           1           1           1           1           1
                0           0           0           0           0           0           0           0           0           0
  48            1           1           1           1           1           1           1           1           1           1
                1           1           1           1           1           1           1           1           1           1
                1           1           1           1           1           1           1           1           1           1
                1           1           1           1           1           1           1           1           1           1
                0           0           0           0           0           0           0           0           0           0
  49            1           1           1           1           1           1           1           1           1           1
                1           1           1           1           1           1           1           1           1           1
                1           1           1           1           1           1           1           1           1           1
                1           1           1           1           1           1           1           1           1           1
                0           0           0           0           0           0           0           0           0           0
  50            1           1           1           1           1           1           1           1           1           1
                1           1           1           1           1           1           1           1           1           1
                1           1           1           1           1           1           1           1           1           1
                1           1           1           1           1           1           1           1           1           1
                0           0           0           0           0           0           0           0           0           0

                1           2           3           4           5           6           7           8           9          10
               11          12          13          14          15          16          17          18          19          20
               21          22          23          24          25          26          27          28          29          30
               31          32          33          34          35          36          37          38          39          40
               41          42          43          44          45          46          47          48          49          50
 ............................................................................................................................
   1            1           1           1           1           1           1           1           1           1           1
                1           1           1           1           1           1           1           1           1           1
                1           1           1           1           1           1           1           1           1           1
                1           1           1           1           1           1           1           1           1           1
                1           1           1           1           1           1           1           1           1           0
   2            1           1           1           1           1           1           1           1           1           1
                1           1           1           1           1           1           1           1           1           1
                1           1           1           1           1           1           1           1           1           1
                1           1           1           1           1           1           1           1           1           1
                1           1           1           1           1           1           1           1           1           0
   3            1           1           1           1           1           1           1           1           1           1
                1           1           1           1           1           1           1           1           1           1
                1           1           1           1           1           1           1           1           1           1
                1           1           1           1           1           1           1           1           1           1
                1           1           1           1           1           1           1           1           0           0
   4            1           1           1           1           1           1           1           1           1           1
                1           1           1           1           1           1           1           1           1           1
                1           1           1           1           1           1           1           1           1           1
                1           1           1           1           1           1           1           1           1           1
                1           1           1           1           1           1           1           1           0           0
   5            1           1           1           1           1           1           1           1           1           1
                1           1           1           1           1           1           1           1           1           1
                1           1           1           1           1           1           1           1           1           1
                1           1           1           1           1           1           1           1           1           1
                1           1           1           1           1           1           1           1           0           0
   6            1           1           1           1           1           1           1           1           1           1
                1           1           1           1           1           1           1           1           1           1
                1           1           1           1           1           1           1           1           1           1
                1           1           1           1           1           1           1           1           1           1
                1           1           1           1           1           1           1           1           0           0
   7            1           1           1           1           1           1           1           1           1           1
                1           1           1           1           1           1           1           1           1           1
                1           1           1           1           1           1           1           1           1           1
                1           1           1           1           1           1           1           1           1           1
                1           1           1           1           1           1           1           1           0           0
   8            1           1           1           1           1           1           1           1           1           1
                1           1           1           1           1           1           1           1           1           1
                1           1           1           1           1           1           1           1           1           1
                1           1           1           1           1           1           1           1           1           1
                1           1           1           1           1           1           1           1           1           0
   9            1           1           1           1           1           1           1           1           1           1
                1           1           1           1           1           1           1           1           1           1
                1           1           1           1           1           1           1           1           1           1
                1           1           1           1           1           1           1           1           1           1
                1           1           1           1           1           1           1           1           1           0
  10            1           1           1           1           1           1           1           1           1           1
                1           1           1           1           1           1           1           1           1           1
                1           1           1           1           1           1           1           1           1           1
                1           1           1           1           1           1           1           1           1           1
                1           1           1           1           1           1           1           1           1           0
  11            1           1           1           1           1           1           1           1           1           1
                1           1           1           1           1           1           1           1           1           1
                1           1           1           1           1           1           1           1           1           1
                1           1           1           1           1           1           1           1           1           1
                1           1           1           1           1           1           1           1           1           0
  12            1           1           1           1           1           1           1           1           1           1
                1           1           1           1           1           1           1           1           1           1
                1           1           1           1           1           1           1           1           1           1
                1           1           1           1           1           1           1           1           1           1
                1           1           1           1           1           1           1           1           1           0
  13            1           1           1           1           1           1           1           1           1           1
                1           1           1           1           1           1           1           1           1           1
                1           1           1           1           1           1           1           1           1           1
                1           1           1           1           1           1           1           1           1           1
                1           1           1           1           1           1           1           1           1           0
  14            1           1           1           1           1           1           1           1           1           1
                1           1           1           1           1           1           1           1           1           1
                1           1           1           1           1           1           1           1           1           1
                1           1           1           1           1           1           1           1           1           1
                1           1           1           1           1           1           1           1           1           0
  15            1           1           1           1           1           1           1           1           1           1
                1           1           1           1           1           1           1           1           1           1
                1           1           1           1           1           1           1           1           1           1
                1           1           1           1           1           1           1           1           1           1
                1           1           1           1           1           1           1           1           1           0
  16            1           1           1           1           1           1           1           1           1           1
                1           1           1           1           1           1           1           1           1           1
                1           1           1           1           1           1           1           1           1           1
                1           1           1           1           1           1           1           1           1           1
                1           1           1           1           1           1           1           1           0           0
  17            1           1           1           1           1           1           1           1           1           1
                1           1           1           1           1           1           1           1           1           1
                1           1           1           1           1           1           1           1           1           1
                1           1           1           1           1           1           1           1           1           1
                1           1           1           1           1           1           1           1           0           0
  18            1           1           1           1           1           1           1           1           1           1
                1           1           1           1           1           1           1           1           1           1
                1           1           1           1           1           1           1           1           1           1
                1           1           1           1           1           1           1           1           1           1
                1           1           1           1           1           1           1           1           0           0
  19            1           1           1           1           1           1           1           1           1           1
                1           1           1           1           1           1           1           1           1           1
                1           1           1           1           1           1           1           1           1           1
                1           1           1           1           1           1           1           1           1           1
                1           1           1           1           1           1           1           0           0           0
  20            1           1           1           1           1           1           1           1           1           1
                1           1           1           1           1           1           1           1           1           1
                1           1           1           1           1           1           1           1           1           1
                1           1           1           1           1           1           1           1           1           1
                1           1           1           1           1           1           0           0           0           0
  21            1           1           1           1           1           1           1           1           1           1
                1           1           1           1           1           1           1           1           1           1
                1           1           1           1           1           1           1           1           1           1
                1           1           1           1           1           1           1           1           1           1
                1           1           1           1           1           1           0           0           0           0
  22            1           1           1           1           1           1           1           1           1           1
                1           1           1           1           1           1           1           1           1           1
                1           1           1           1           1           1           1           1           1           1
                1           1           1           1           1           1           1           1           1           1
                1           1           1           1           1           1           0           0           0           0
  23            1           1           1           1           1           1           1           1           1           1
                1           1           1           1           1           1           1           1           1           1
                1           1           1           1           1           1           1           1           1           1
                1           1           1           1           1           1           1           1           1           1
                1           1           1           1           1           0           0           0           0           0
  24            1           1           1           1           1           1           1           1           1           1
                1           1           1           1           1           1           1           1           1           1
                1           1           1           1           1           1           1           1           1           1
                1           1           1           1           1           1           1           1           1           1
                1           1           1           1           1           0           0           0           0           0
  25            1           1           1           1           1           1           1           1           1           1
                1           1           1           1           1           1           1           1           1           1
                1           1           1           1           1           1           1           1           1           1
                1           1           1           1           1           1           1           1           1           1
                1           1           1           1           1           0           0           0           0           0
  26            1           1           1           1           1           1           1           1           1           1
                1           1           1           1           1           1           1           1           1           1
                1           1           1           1           1           1           1           1           1           1
                1           1           1           1           1           1           1           1           1           1
                1           1           1           1           1           0           0           0           0           0
  27            1           1           1           1           1           1           1           1           1           1
                1           1           1           1           1           1           1           1           1           1
                1           1           1           1           1           1           1           1           1           1
                1           1           1           1           1           1           1           1           1           1
                1           1           1           1           1           0           0           0           0           0
  28            1           1           1           1           1           1           1           1           1           1
                1           1           1           1           1           1           1           1           1           1
                1           1           1           1           1           1           1           1           1           1
                1           1           1           1           1           1           1           1           1           1
                1           1           1           1           1           0           0           0           0           0
  29            1           1           1           1           1           1           1           1           1           1
                1           1           1           1           1           1           1           1           1           1
                1           1           1           1           1           1           1           1           1           1
                1           1           1           1           1           1           1           1           1           1
                1           1           1           1           1           0           0           0           0           0
  30            1           1           1           1           1           1           1           1           1           1
                1           1           1           1           1           1           1           1           1           1
                1           1           1           1           1           1           1           1           1           1
                1           1           1           1           1           1           1           1           1           1
                1           1           1           1           1           0           0           0           0           0
  31            1           1           1           1           1           1           1           1           1           1
                1           1           1           1           1           1           1           1           1           1
                1           1           1           1           1           1           1           1           1           1
                1           1           1           1           1           1           1           1           1           1
                1           1           1           1           1           0           0           0           0           0
  32            1           1           1           1           1           1           1           1           1           1
                1           1           1           1           1           1           1           1           1           1
                1           1           1           1           1           1           1           1           1           1
                1           1           1           1           1           1           1           1           1           1
                1           1           1           1           0           0           0           0           0           0
  33            1           1           1           1           1           1           1           1           1           1
                1           1           1           1           1           1           1           1           1           1
                1           1           1           1           1           1           1           1           1           1
                1           1           1           1           1           1           1           1           1           1
                1           1           1           1           0           0           0           0           0           0
  34            1           1           1           1           1           1           1           1           1           1
                1           1           1           1           1           1           1           1           1           1
                1           1           1           1           1           1           1           1           1           1
                1           1           1           1           1           1           1           1           1           1
                1           1           1           1           0           0           0           0           0           0
  35            1           1           1           1           1           1           1           1           1           1
                1           1           1           1           1           1           1           1           1           1
                1           1           1           1           1           1           1           1           1           1
                1           1           1           1           1           1           1           1           1           1
                1           1           1           1           0           0           0           0           0           0
  36            1           1           1           1           1           1           1           1           1           1
                1           1           1           1           1           1           1           1           1           1
                1           1           1           1           1           1           1           1           1           1
                1           1           1           1           1           1           1           1           1           1
                1           1           1           1           0           0           0           0           0           0
  37            1           1           1           1           1           1           1           1           1           1
                1           1           1           1           1           1           1           1           1           1
                1           1           1           1           1           1           1           1           1           1
                1           1           1           1           1           1           1           1           1           1
                1           1           1           0           0           0           0           0           0           0
  38            1           1           1           1           1           1           1           1           1           1
                1           1           1           1           1           1           1           1           1           1
                1           1           1           1           1           1           1           1           1           1
                1           1           1           1           1           1           1           1           1           1
                1           1           1           0           0           0           0           0           0           0
  39            1           1           1           1           1           1           1           1           1           1
                1           1           1           1           1           1           1           1           1           1
                1           1           1           1           1           1           1           1           1           1
                1           1           1           1           1           1           1           1           1           1
                1           1           0           0           0           0           0           0           0           0
  40            1           1           1           1           1           1           1           1           1           1
                1           1           1           1           1           1           1           1           1           1
                1           1           1           1           1           1           1           1           1           1
                1           1           1           1           1           1           1           1           1           1
                1           1           0           0           0           0           0           0           0           0
  41            1           1           1           1           1           1           1           1           1           1
                1           1           1           1           1           1           1           1           1           1
                1           1           1           1           1           1           1           1           1           1
                1           1           1           1           1           1           1           1           1           1
                1           0           0           0           0           0           0           0           0           0
  42            1           1           1           1           1           1           1           1           1           1
                1           1           1           1           1           1           1           1           1           1
                1           1           1           1           1           1           1           1           1           1
                1           1           1           1           1           1           1           1           1           1
                1           0           0           0           0           0           0           0           0           0
  43            1           1           1           1           1           1           1           1           1           1
                1           1           1           1           1           1           1           1           1           1
                1           1           1           1           1           1           1           1           1           1
                1           1           1           1           1           1           1           1           1           1
                1           0           0           0           0           0           0           0           0           0
  44            1           1           1           1           1           1           1           1           1           1
                1           1           1           1           1           1           1           1           1           1
                1           1           1           1           1           1           1           1           1           1
                1           1           1           1           1           1           1           1           1           1
                0           0           0           0           0           0           0           0           0           0
  45            1           1           1           1           1           1           1           1           1           1
                1           1           1           1           1           1           1           1           1           1
                1           1           1           1           1           1           1           1           1           1
                1           1           1           1           1           1           1           1           1           1
                0           0           0           0           0           0           0           0           0           0
  46            1           1           1           1           1           1           1           1           1           1
                1           1           1           1           1           1           1           1           1           1
                1           1           1           1           1           1           1           1           1           1
                1           1           1           1           1           1           1           1           1           1
                0           0           0           0           0           0           0           0           0           0
  47            1           1           1           1           1           1           1           1           1           1
                1           1           1           1           1           1           1           1           1           1
                1           1           1           1           1           1           1           1           1           1
                1           1           1           1           1           1           1           1           1           1
                0           0           0           0           0           0           0           0           0           0
  48            1           1           1           1           1           1           1           1           1           1
                1           1           1           1           1           1           1           1           1           1
                1           1           1           1           1           1           1           1           1           1
                1           1           1           1           1           1           1           1           1           1
                0           0           0           0           0           0           0           0           0           0
  49            1           1           1           1           1           1           1           1           1           1
                1           1           1           1           1           1           1           1           1           1
                1           1           1           1           1           1           1           1           1           1
                1           1           1           1           1           1           1           1           1           1
                0           0           0           0           0           0           0           0           0           0
  50            1           1           1           1           1           1           1           1           1           1
                1           1           1           1           1           1           1           1           1           1
                1           1           1           1           1           1           1           1           1           1
                1           1           1           1           1           1           1           1           1           1
                0           0           0           0           0           0           0           0           0           0

                1           2           3           4           5           6           7           8           9          10
               11          12          13          14          15          16          17          18          19          20
               21          22          23          24          25          26          27          28          29          30
               31          32          33          34          35          36          37          38          39          40
               41          42          43          44          45          46          47          48          49          50
 ............................................................................................................................
   1            1           1           1           1           1           1           1           1           1           1
                1           1           1           1           1           1           1           1           1           1
                1           1           1           1           1           1           1           1           1           1
                1           1           1           1           1           1           1           1           1           1
                1           1           1           1           1           1           1           1           1           0
   2            1           1           1           1           1           1           1           1           1           1
                1           1           1           1           1           1           1           1           1           1
                1           1           1           1           1           1           1           1           1           1
                1           1           1           1           1           1           1           1           1           1
                1           1           1           1           1           1           1           1           1           0
   3            1           1           1           1           1           1           1           1           1           1
                1           1           1           1           1           1           1           1           1           1
                1           1           1           1           1           1           1           1           1           1
                1           1           1           1           1           1           1           1           1           1
                1           1           1           1           1           1           1           1           0           0
   4            1           1           1           1           1           1           1           1           1           1
                1           1           1           1           1           1           1           1           1           1
                1           1           1           1           1           1           1           1           1           1
                1           1           1           1           1           1           1           1           1           1
                1           1           1           1           1           1           1           1           0           0
   5            1           1           1           1           1           1           1           1           1           1
                1           1           1           1           1           1           1           1           1           1
                1           1           1           1           1           1           1           1           1           1
                1           1           1           1           1           1           1           1           1           1
                1           1           1           1           1           1           1           1           0           0
   6            1           1           1           1           1           1           1           1           1           1
                1           1           1           1           1           1           1           1           1           1
                1           1           1           1           1           1           1           1           1           1
                1           1           1           1           1           1           1           1           1           1
                1           1           1           1           1           1           1           1           0           0
   7            1           1           1           1           1           1           1           1           1           1
                1           1           1           1           1           1           1           1           1           1
                1           1           1           1           1           1           1           1           1           1
                1           1           1           1           1           1           1           1           1           1
                1           1           1           1           1           1           1           1           0           0
   8            1           1           1           1           1           1           1           1           1           1
                1           1           1           1           1           1           1           1           1           1
                1           1           1           1           1           1           1           1           1           1
                1           1           1           1           1           1           1           1           1           1
                1           1           1           1           1           1           1           1           1           0
   9            1           1           1           1           1           1           1           1           1           1
                1           1           1           1           1           1           1           1           1           1
                1           1           1           1           1           1           1           1           1           1
                1           1           1           1           1           1           1           1           1           1
                1           1           1           1           1           1           1           1           1           0
  10            1           1           1           1           1           1           1           1           1           1
                1           1           1           1           1           1           1           1           1           1
                1           1           1           1           1           1           1           1           1           1
                1           1           1           1           1           1           1           1           1           1
                1           1           1           1           1           1           1           1           1           0
  11            1           1           1           1           1           1           1           1           1           1
                1           1           1           1           1           1           1           1           1           1
                1           1           1           1           1           1           1           1           1           1
                1           1           1           1           1           1           1           1           1           1
                1           1           1           1           1           1           1           1           1           0
  12            1           1           1           1           1           1           1           1           1           1
                1           1           1           1           1           1           1           1           1           1
                1           1           1           1           1           1           1           1           1           1
                1           1           1           1           1           1           1           1           1           1
                1           1           1           1           1           1           1           1           1           0
  13            1           1           1           1           1           1           1           1           1           1
                1           1           1           1           1           1           1           1           1           1
                1           1           1           1           1           1           1           1           1           1
                1           1           1           1           1           1           1           1           1           1
                1           1           1           1           1           1           1           1           1           0
  14            1           1           1           1           1           1           1           1           1           1
                1           1           1           1           1           1           1           1           1           1
                1           1           1           1           1           1           1           1           1           1
                1           1           1           1           1           1           1           1           1           1
                1           1           1           1           1           1           1           1           1           0
  15            1           1           1           1           1           1           1           1           1           1
                1           1           1           1           1           1           1           1           1           1
                1           1           1           1           1           1           1           1           1           1
                1           1           1           1           1           1           1           1           1           1
                1           1           1           1           1           1           1           1           1           0
  16            1           1           1           1           1           1           1           1           1           1
                1           1           1           1           1           1           1           1           1           1
                1           1           1           1           1           1           1           1           1           1
                1           1           1           1           1           1           1           1           1           1
                1           1           1           1           1           1           1           1           0           0
  17            1           1           1           1           1           1           1           1           1           1
                1           1           1           1           1           1           1           1           1           1
                1           1           1           1           1           1           1           1           1           1
                1           1           1           1           1           1           1           1           1           1
                1           1           1           1           1           1           1           1           0           0
  18            1           1           1           1           1           1           1           1           1           1
                1           1           1           1           1           1           1           1           1           1
                1           1           1           1           1           1           1           1           1           1
                1           1           1           1           1           1           1           1           1           1
                1           1           1           1           1           1           1           1           0           0
  19            1           1           1           1           1           1           1           1           1           1
[...]
      STREAM LEAKAGE =       12000.8398        STREAM LEAKAGE =       12000.8398

           TOTAL OUT =       55065.0625             TOTAL OUT =       55065.0625

            IN - OUT =          -2.5156              IN - OUT =          -2.5156

 PERCENT DISCREPANCY =           0.00     PERCENT DISCREPANCY =           0.00






          TIME SUMMARY AT END OF TIME STEP   1 IN STRESS PERIOD    1
                    SECONDS     MINUTES      HOURS       DAYS        YEARS
                    -----------------------------------------------------------
   TIME STEP LENGTH  86400.      1440.0      24.000      1.0000     2.73785E-03
 STRESS PERIOD TIME  86400.      1440.0      24.000      1.0000     2.73785E-03
         TOTAL TIME  86400.      1440.0      24.000      1.0000     2.73785E-03
1

 HEADS AT DRAIN CELLS ARE BELOW THE BOTTOM OF THE DRAIN AT THE CELLS LISTED
 BELOW.  THESE CONDITIONS DIMINISH THE IMPACT OF THE OBSERVATION ON ESTIMATES
 OF ALL PARAMETERS.  (SEE TEXT FOR MORE INFORMATION).

 OBS#     19, ID drnf0       , TIME STEP     1
    LAYER   ROW  COLUMN
      1      8     48
      1      9     48
      1      9     49
      1     10     49
      1     12     49
      5 OF THE      9 REACHES OR CELLS USED TO SIMULATE THE GAIN OR LOSS ARE
                      AFFECTED.

 OBS#     20, ID drnf1       , TIME STEP     1
    LAYER   ROW  COLUMN
      1     22     45
      1     23     45
      1     24     44
      1     24     45
      4 OF THE      6 REACHES OR CELLS USED TO SIMULATE THE GAIN OR LOSS ARE
                      AFFECTED.

 OBS#     22, ID drnf3       , TIME STEP     1
    LAYER   ROW  COLUMN
      1     24     44
      1     26     45
      1     27     44
      1     27     45
      4 OF THE      9 REACHES OR CELLS USED TO SIMULATE THE GAIN OR LOSS ARE
                      AFFECTED.

 OBS#     23, ID drnf4       , TIME STEP     1
    LAYER   ROW  COLUMN
      1     27     44
      1     29     44
      1     29     45
      3 OF THE      7 REACHES OR CELLS USED TO SIMULATE THE GAIN OR LOSS ARE
                      AFFECTED.

 OBS#     24, ID drnf5       , TIME STEP     1
    LAYER   ROW  COLUMN
      1     29     44
      1 OF THE      9 REACHES OR CELLS USED TO SIMULATE THE GAIN OR LOSS ARE
                      AFFECTED.

 OBS#     26, ID drnf7       , TIME STEP     1
    LAYER   ROW  COLUMN
      1     31     43
      1     31     44
      1     31     45
      1     32     44
      1     33     43
      1     33     44
      6 OF THE      8 REACHES OR CELLS USED TO SIMULATE THE GAIN OR LOSS ARE
                      AFFECTED.

 OBS#     27, ID drnf8       , TIME STEP     1
    LAYER   ROW  COLUMN
      1     35     43
      1     35     44
      1     36     43
      1     36     44
      4 OF THE      6 REACHES OR CELLS USED TO SIMULATE THE GAIN OR LOSS ARE
                      AFFECTED.

 OBS#     28, ID drnf9       , TIME STEP     1
    LAYER   ROW  COLUMN
      1     36     43
      1 OF THE     10 REACHES OR CELLS USED TO SIMULATE THE GAIN OR LOSS ARE
                      AFFECTED.

 OBS#     31, ID drnf12      , TIME STEP     1
    LAYER   ROW  COLUMN
      1     42     40
      1     42     41
      1     43     39
      1     43     40
      1     43     41
      5 OF THE      9 REACHES OR CELLS USED TO SIMULATE THE GAIN OR LOSS ARE
                      AFFECTED.

 OBS#     33, ID drnf14      , TIME STEP     1
    LAYER   ROW  COLUMN
      1     46     39
      1     46     40
      1     47     40
      1     48     40
      4 OF THE      6 REACHES OR CELLS USED TO SIMULATE THE GAIN OR LOSS ARE
                      AFFECTED.

 OBS#     34, ID drnf15      , TIME STEP     1
    LAYER   ROW  COLUMN
      1     43     39
      1 OF THE      9 REACHES OR CELLS USED TO SIMULATE THE GAIN OR LOSS ARE
                      AFFECTED.

 OBS#     35, ID drnf16      , TIME STEP     1
    LAYER   ROW  COLUMN
      1     14     49
      1     16     47
      1     16     48
      3 OF THE      8 REACHES OR CELLS USED TO SIMULATE THE GAIN OR LOSS ARE
                      AFFECTED.

 OBS#     36, ID drnf17      , TIME STEP     1
    LAYER   ROW  COLUMN
      1      2     48
      1      5     48
      2 OF THE      8 REACHES OR CELLS USED TO SIMULATE THE GAIN OR LOSS ARE
                      AFFECTED.

 OBS#     38, ID drnf19      , TIME STEP     1
    LAYER   ROW  COLUMN
      1      7     48
      1 OF THE      7 REACHES OR CELLS USED TO SIMULATE THE GAIN OR LOSS ARE
                      AFFECTED.

 OBS#     40, ID drnf21      , TIME STEP     1
    LAYER   ROW  COLUMN
      1     16     47
      1 OF THE      7 REACHES OR CELLS USED TO SIMULATE THE GAIN OR LOSS ARE
                      AFFECTED.

 OBS#     41, ID drnf22      , TIME STEP     1
    LAYER   ROW  COLUMN
      1     18     47
      1     18     48
      1     19     47
      3 OF THE      8 REACHES OR CELLS USED TO SIMULATE THE GAIN OR LOSS ARE
                      AFFECTED.

 DATA AT HEAD LOCATIONS

        OBSERVATION     OBSER-     SIMUL.                          WEIGHTED
   OBS#    NAME         VATION     EQUIV.    RESIDUAL  WEIGHT**.5  RESIDUAL
                          *          *
      1 hed1            93.3       92.8      0.463      0.423E-03  0.196E-03
      2 hed2            92.7       92.3      0.344      0.399E-01  0.137E-01
      3 hed3            92.3       93.1     -0.857      0.529E-01 -0.453E-01
      4 hed4            90.8       91.2     -0.413      0.453E-01 -0.187E-01
      5 hed5            89.2       89.7     -0.524      0.561E-01 -0.294E-01
      6 hed6            88.8       88.9     -0.439E-01  0.184E-01 -0.807E-03
      7 hed7            88.3       88.3      0.266E-01  0.169E-01  0.449E-03
      8 hed8            88.2       88.3     -0.123      0.222E-01 -0.272E-02
      9 hed9            88.1       89.2      -1.17      0.317E-01 -0.372E-01
     10 hed10           87.8       88.3     -0.549      0.565E-01 -0.310E-01
     11 hed11           87.8       87.2      0.632      0.641E-01  0.405E-01
     12 hed12           85.5       86.3     -0.788      0.676E-01 -0.533E-01
     13 hed13           84.9       83.1       1.76      0.593E-02  0.104E-01
     14 hed14           84.6       84.4      0.208      0.256E-01  0.534E-02
     15 hed15           84.5       83.3       1.26      0.292E-01  0.367E-01
     16 hed16           84.4       83.6      0.771      0.682E-01  0.526E-01
     17 hed17           84.0       82.4       1.56      0.126E-01  0.197E-01
     18 hed18           83.9       85.4      -1.49      0.458E-03 -0.681E-03

 * THE OBSERVATION (AND CORRESPONDING SIMULATED EQUIVALENT) IS HEAD OR TEMPORAL
   CHANGE IN HEAD, AS SPECIFIED IN THE "HOB" INPUT FILE.  NEGATIVE TEMPORAL
   CHANGES INDICATE DRAWDOWN.

 STATISTICS FOR HEAD RESIDUALS :
 MAXIMUM WEIGHTED RESIDUAL  : 0.526E-01 OBS#     16
 MINIMUM WEIGHTED RESIDUAL  :-0.533E-01 OBS#     12
 AVERAGE WEIGHTED RESIDUAL  :-0.219E-02
 # RESIDUALS >= 0. :      9
 # RESIDUALS < 0.  :      9
 NUMBER OF RUNS  :    8  IN   18 OBSERVATIONS

 SUM OF SQUARED WEIGHTED RESIDUALS (HEADS ONLY)  0.14920E-01

 DATA FOR FLOWS REPRESENTED USING THE DRAIN PACKAGE

       OBSERVATION      MEAS.      CALC.                          WEIGHTED
  OBS#    NAME          FLOW       FLOW     RESIDUAL  WEIGHT**.5  RESIDUAL

    19 drnf0         -0.111E+04  -930.      -182.      0.144E-02 -0.263    
    20 drnf1          -811.      -504.      -306.      0.518E-03 -0.159    
    21 drnf2         -0.194E+04 -0.210E+04   160.      0.122E-02  0.195    
    22 drnf3         -0.166E+04 -0.170E+04   43.4      0.833E-03  0.362E-01
    23 drnf4         -0.116E+04  -995.      -163.      0.153E-02 -0.249    
    24 drnf5         -0.184E+04 -0.196E+04   119.      0.105E-02  0.125    
    25 drnf6         -0.165E+04 -0.169E+04   40.0      0.807E-03  0.323E-01
    26 drnf7          -538.      -119.      -419.      0.141E-04 -0.590E-02
    27 drnf8          -918.      -657.      -262.      0.827E-03 -0.217    
    28 drnf9         -0.199E+04 -0.218E+04   184.      0.131E-02  0.241    
    29 drnf10        -0.140E+04 -0.134E+04  -63.0      0.117E-02 -0.735E-01
    30 drnf11        -0.127E+04 -0.115E+04  -118.      0.149E-02 -0.176    
    31 drnf12         -946.      -695.      -251.      0.915E-03 -0.229    
    32 drnf13        -0.133E+04 -0.124E+04  -90.8      0.138E-02 -0.125    
    33 drnf14         -736.      -399.      -337.      0.347E-03 -0.117    
    34 drnf15        -0.285E+04 -0.338E+04   537.      0.399E-04  0.214E-01
    35 drnf16         -754.      -424.      -330.      0.380E-03 -0.126    
    36 drnf17        -0.141E+04 -0.135E+04  -57.7      0.112E-02 -0.647E-01
    37 drnf18         -787.      -471.      -316.      0.465E-03 -0.147    
    38 drnf19        -0.132E+04 -0.122E+04  -96.9      0.140E-02 -0.136    
    39 drnf20        -0.189E+04 -0.203E+04   140.      0.113E-02  0.159    
    40 drnf21        -0.194E+04 -0.210E+04   160.      0.122E-02  0.195    
    41 drnf22        -0.125E+04 -0.113E+04  -124.      0.152E-02 -0.187    

 STATISTICS FOR DRAIN FLOW RESIDUALS :
 MAXIMUM WEIGHTED RESIDUAL  : 0.241     OBS#     28
 MINIMUM WEIGHTED RESIDUAL  :-0.263     OBS#     19
 AVERAGE WEIGHTED RESIDUAL  :-0.552E-01
 # RESIDUALS >= 0. :      8
 # RESIDUALS < 0.  :     15
 NUMBER OF RUNS:     11  IN     23 OBSERVATIONS

 SUM OF SQUARED WEIGHTED RESIDUALS (DRAIN FLOWS ONLY)  0.59360    

 DATA FOR FLOWS REPRESENTED USING THE GENERAL-HEAD BOUNDARY PACKAGE

        OBSERVATION      MEAS.      CALC.                          WEIGHTED
   OBS#    NAME          FLOW       FLOW     RESIDUAL  WEIGHT**.5  RESIDUAL

     42 ghbf0          -107.      -112.       5.13      0.452E-02  0.232E-01
     43 ghbf1          -120.      -130.       10.5      0.611E-02  0.641E-01
     44 ghbf2          -115.      -123.       8.32      0.564E-02  0.469E-01
     45 ghbf3          -123.      -135.       11.9      0.636E-02  0.758E-01
     46 ghbf4          -123.      -134.       11.6      0.637E-02  0.740E-01
     47 ghbf5          -99.2      -101.       1.88      0.344E-02  0.648E-02
     48 ghbf6          -20.1       10.8      -30.8      0.684E-04 -0.211E-02
     49 ghbf7          -43.2      -21.9      -21.3      0.681E-02 -0.145    
     50 ghbf8          -62.4      -49.0      -13.3      0.624E-02 -0.832E-01
     51 ghbf9          -69.5      -59.1      -10.4      0.557E-02 -0.578E-01
     52 ghbf10         -79.4      -73.1      -6.29      0.438E-02 -0.276E-01
     53 ghbf11         -86.3      -82.9      -3.42      0.365E-02 -0.125E-01
     54 ghbf12         -124.      -137.       12.3      0.636E-02  0.783E-01
     55 ghbf13         -199.      -242.       43.3      0.169E-03  0.731E-02
     56 ghbf14         -200.      -244.       43.8      0.562E-04  0.246E-02
     57 ghbf15         -118.      -128.       9.72      0.599E-02  0.582E-01
     58 ghbf16         -28.5      -1.15      -27.4      0.549E-02 -0.150    
     59 ghbf17         -39.3      -16.4      -22.9      0.654E-02 -0.150    
     60 ghbf18         -58.7      -43.9      -14.8      0.654E-02 -0.970E-01
     61 ghbf19         -81.1      -75.5      -5.59      0.419E-02 -0.234E-01
     62 ghbf20         -89.3      -87.2      -2.17      0.332E-02 -0.722E-02

 STATISTICS FOR GENERAL-HEAD BOUNDARY FLOW RESIDUALS :
 MAXIMUM WEIGHTED RESIDUAL  : 0.783E-01 OBS#     54
 MINIMUM WEIGHTED RESIDUAL  :-0.150     OBS#     58
 AVERAGE WEIGHTED RESIDUAL  :-0.152E-01
 # RESIDUALS >= 0. :     10
 # RESIDUALS < 0.  :     11
 NUMBER OF RUNS:      4  IN     21 OBSERVATIONS

 SUM OF SQUARED WEIGHTED RESIDUALS
   (GENERAL-HEAD BOUNDARY FLOWS ONLY)  0.11490    

 DATA FOR FLOWS REPRESENTED USING THE STREAMFLOW ROUTING PACKAGE

        OBSERVATION      MEAS.      CALC.                          WEIGHTED
   OBS#    NAME          FLOW       FLOW     RESIDUAL  WEIGHT**.5  RESIDUAL

     63 strf0          -327.      -316.      -10.5      0.859E-03 -0.898E-02
     64 strf1          -312.      -299.      -13.5      0.896E-03 -0.121E-01
     65 strf2          -551.      -588.       37.0      0.853E-03  0.316E-01
     66 strf3          -271.      -249.      -22.2      0.950E-03 -0.211E-01
     67 strf4          -124.      -70.7      -53.4      0.599E-03 -0.320E-01
     68 strf5          -287.      -268.      -18.9      0.932E-03 -0.176E-01
     69 strf6          -331.      -321.      -9.60      0.859E-03 -0.825E-02
     70 strf7          -275.      -254.      -21.3      0.951E-03 -0.203E-01
     71 strf8          -290.      -271.      -18.3      0.933E-03 -0.170E-01
     72 strf9          -201.      -164.      -37.1      0.860E-03 -0.319E-01
     73 strf10         -202.      -165.      -36.9      0.860E-03 -0.317E-01
     74 strf11         -162.      -117.      -45.3      0.742E-03 -0.337E-01
     75 strf12         -110.      -54.2      -56.3      0.548E-03 -0.308E-01
     76 strf13         -2.29       76.9      -79.2      0.218E-03 -0.172E-01
     77 strf14          450.       625.      -175.      0.134E-04 -0.235E-02
     78 strf15        -0.111E+04 -0.127E+04   156.      0.176E-04  0.274E-02
     79 strf16         -677.      -741.       63.9      0.956E-03  0.611E-01
     80 strf17         -736.      -812.       76.3      0.988E-03  0.753E-01
     81 strf18         -373.      -372.     -0.616      0.732E-03 -0.451E-03
     82 strf19         -342.      -335.      -7.09      0.822E-03 -0.583E-02
     83 strf20         -440.      -453.       13.5      0.760E-03  0.103E-01
     84 strf21         -456.      -473.       16.9      0.781E-03  0.132E-01
     85 strf22         -408.      -415.       6.83      0.737E-03  0.503E-02
     86 strf23         -483.      -506.       22.8      0.804E-03  0.183E-01
     87 strf24         -783.      -870.       86.4      0.102E-02  0.880E-01
     88 strf25         -454.      -470.       16.5      0.780E-03  0.128E-01
     89 strf26         -595.      -641.       46.4      0.900E-03  0.418E-01
     90 strf27         -529.      -562.       32.6      0.850E-03  0.277E-01
     91 strf28         -472.      -492.       20.3      0.802E-03  0.163E-01
     92 strf29         -423.      -433.       10.1      0.758E-03  0.762E-02

 STATISTICS FOR STREAMFLOW ROUTING FLOW RESIDUALS :
 MAXIMUM WEIGHTED RESIDUAL  : 0.880E-01 OBS#     87
 MINIMUM WEIGHTED RESIDUAL  :-0.337E-01 OBS#     74
 AVERAGE WEIGHTED RESIDUAL  : 0.402E-02
 # RESIDUALS >= 0. :     14
 # RESIDUALS < 0.  :     16
 NUMBER OF RUNS:      6  IN     30 OBSERVATIONS

 SUM OF SQUARED WEIGHTED RESIDUALS (STREAMFLOW ROUTING FLOWS ONLY)  0.29026E-01

 DATA FOR FLOW OBSERVATIONS AT BOUNDARIES REPRESENTED AS CONSTANT-HEAD

       OBSERVATION      MEAS.      CALC.                          WEIGHTED
  OBS#    NAME          FLOW       FLOW     RESIDUAL  WEIGHT**.5  RESIDUAL

    93 chdf0           565.       568.      -2.25      0.857E-03 -0.193E-02
    94 chdf1           638.       655.      -17.6      0.165E-02 -0.290E-01
    95 chdf2           853.       917.      -63.3      0.305E-02 -0.193    
    96 chdf3           754.       797.      -42.3      0.320E-02 -0.136    
    97 chdf4           769.       815.      -45.5      0.330E-02 -0.150    
    98 chdf5           869.       935.      -66.6      0.342E-04 -0.228E-02
    99 chdf6           569.       572.      -2.94      0.889E-03 -0.261E-02
   100 chdf7           532.       527.       4.85      0.139E-02  0.673E-02
   101 chdf8           603.       614.      -10.3      0.123E-02 -0.127E-01
   102 chdf9           416.       386.       29.5      0.106E-02  0.313E-01
   103 chdf10          441.       417.       24.2      0.190E-02  0.460E-01
   104 chdf11          515.       506.       8.48      0.201E-02  0.171E-01
   105 chdf12          431.       405.       26.2      0.156E-02  0.408E-01
   106 chdf13          581.       586.      -5.52      0.990E-03 -0.546E-02
   107 chdf14          397.       364.       33.4      0.620E-03  0.207E-01
   108 chdf15          436.       411.       25.1      0.174E-02  0.437E-01
   109 chdf16          464.       445.       19.2      0.269E-02  0.517E-01
   110 chdf17          379.       341.       37.3      0.263E-04  0.984E-03
   111 chdf18          476.       460.       16.6      0.289E-02  0.481E-01
   112 chdf19          458.       438.       20.5      0.251E-02  0.515E-01
   113 chdf20          503.       492.       11.0      0.241E-02  0.265E-01

 STATISTICS FOR CONSTANT-HEAD BOUNDARY FLOW RESIDUALS :
 MAXIMUM WEIGHTED RESIDUAL  : 0.517E-01 OBS#    109
 MINIMUM WEIGHTED RESIDUAL  :-0.193     OBS#     95
 AVERAGE WEIGHTED RESIDUAL  :-0.703E-02
 # RESIDUALS >= 0. :     12
 # RESIDUALS < 0.  :      9
 NUMBER OF RUNS  :    6  IN   21 OBSERVATIONS

 SUM OF SQUARED WEIGHTED RESIDUALS
   (CONSTANT-HEAD BOUNDARY FLOWS ONLY)  0.94921E-01

 SUM OF SQUARED WEIGHTED RESIDUALS (ALL DEPENDENT VARIABLES)  0.84736    

 STATISTICS FOR ALL RESIDUALS :
 AVERAGE WEIGHTED RESIDUAL  :-0.146E-01
 # RESIDUALS >= 0. :     53
 # RESIDUALS < 0.  :     60
 NUMBER OF RUNS  :   33  IN  113 OBSERVATIONS

 INTERPRETING THE CALCULATED RUNS STATISTIC VALUE OF     -4.51    
 NOTE: THE FOLLOWING APPLIES ONLY IF 
        # RESIDUALS >= 0 . IS GREATER THAN 10 AND 
        # RESIDUALS < 0.   IS GREATER THAN 10
 THE NEGATIVE VALUE MAY INDICATE TOO FEW RUNS:
    IF THE VALUE IS LESS THAN -1.28, THERE IS LESS THAN A 10 PERCENT
       CHANCE THE VALUES ARE RANDOM,
    IF THE VALUE IS LESS THAN -1.645, THERE IS LESS THAN A 5 PERCENT
       CHANCE THE VALUES ARE RANDOM,
    IF THE VALUE IS LESS THAN -1.96, THERE IS LESS THAN A 2.5 PERCENT
       CHANCE THE VALUES ARE RANDOM.


 ORDERED DEPENDENT-VARIABLE WEIGHTED RESIDUALS
 NUMBER OF RESIDUALS INCLUDED:       113
    -0.263     -0.249     -0.229     -0.217     -0.193     -0.187     -0.176    
    -0.159     -0.150     -0.150     -0.150     -0.147     -0.145     -0.136    
    -0.136     -0.126     -0.125     -0.117     -0.970E-01 -0.832E-01 -0.735E-01
    -0.647E-01 -0.578E-01 -0.533E-01 -0.453E-01 -0.372E-01 -0.337E-01 -0.320E-01
    -0.319E-01 -0.317E-01 -0.310E-01 -0.308E-01 -0.294E-01 -0.290E-01 -0.276E-01
    -0.234E-01 -0.211E-01 -0.203E-01 -0.187E-01 -0.176E-01 -0.172E-01 -0.170E-01
    -0.127E-01 -0.125E-01 -0.121E-01 -0.898E-02 -0.825E-02 -0.722E-02 -0.590E-02
    -0.583E-02 -0.546E-02 -0.272E-02 -0.261E-02 -0.235E-02 -0.228E-02 -0.211E-02
    -0.193E-02 -0.807E-03 -0.681E-03 -0.451E-03  0.196E-03  0.449E-03  0.984E-03
     0.246E-02  0.274E-02  0.503E-02  0.534E-02  0.648E-02  0.673E-02  0.731E-02
     0.762E-02  0.103E-01  0.104E-01  0.128E-01  0.132E-01  0.137E-01  0.163E-01
     0.171E-01  0.183E-01  0.197E-01  0.207E-01  0.214E-01  0.232E-01  0.265E-01
     0.277E-01  0.313E-01  0.316E-01  0.323E-01  0.362E-01  0.367E-01  0.405E-01
     0.408E-01  0.418E-01  0.437E-01  0.460E-01  0.469E-01  0.481E-01  0.515E-01
     0.517E-01  0.526E-01  0.582E-01  0.611E-01  0.641E-01  0.740E-01  0.753E-01
     0.758E-01  0.783E-01  0.880E-01  0.125      0.159      0.195      0.195    
     0.241    

 CORRELATION BETWEEN ORDERED WEIGHTED RESIDUALS AND NORMAL ORDER STATISTICS
 FOR OBSERVATIONS =    0.919    

 --------------------------------------------------------------------------
 COMMENTS ON THE INTERPRETATION OF THE CORRELATION BETWEEN
 WEIGHTED RESIDUALS AND NORMAL ORDER STATISTICS:

 The critical value for correlation at the 5% significance level is 0.978

 IF the reported CORRELATION is GREATER than the 5% critical value, ACCEPT
 the hypothesis that the weighted residuals are INDEPENDENT AND NORMALLY
 DISTRIBUTED at the 5% significance level.  The probability that this   
 conclusion is wrong is less than 5%.

 IF the reported correlation IS LESS THAN the 5% critical value REJECT the
 hypothesis that the weighted residuals are INDEPENDENT AND NORMALLY
 DISTRIBUTED at the 5% significance level.

 The analysis can also be done using the 10% significance level.
 The associated critical value is 0.981
 --------------------------------------------------------------------------

