                                  MODFLOW-2000
      U.S. GEOLOGICAL SURVEY MODULAR FINITE-DIFFERENCE GROUND-WATER FLOW MODEL
                           VERSION 1.19.01 03/25/2010


 This model run produced both GLOBAL and LIST files.  This is the LIST file.

 
 #GMS MODFLOW Simulation                                                         
 #01 June 2023                                                                   
 THE FREE FORMAT OPTION HAS BEEN SELECTED
    5 LAYERS        50 ROWS        50 COLUMNS
    1 STRESS PERIOD(S) IN SIMULATION

 BAS6 -- BASIC PACKAGE, VERSION 6, 1/11/2000 INPUT READ FROM UNIT  703
         25 ELEMENTS IN IR ARRAY ARE USED BY BAS

 DRN6 -- DRAIN PACKAGE, VERSION 6, 1/11/2000 INPUT READ FROM UNIT  710
 #GMS_HDF5_01
 No named parameters
 MAXIMUM OF    161 ACTIVE DRAINS AT ONE TIME
 CELL-BY-CELL FLOWS WILL BE SAVED ON UNIT  740
 AUXILIARY DRAIN VARIABLE: IFACE           
 AUXILIARY DRAIN VARIABLE: CONDFACT        
 AUXILIARY DRAIN VARIABLE: CELLGRP         
       1288 ELEMENTS IN RX ARRAY ARE USED BY DRN

 EVT6 -- EVAPOTRANSPIRATION PACKAGE, VERSION 6, 12/14/2000
         INPUT READ FROM UNIT  712
 #GMS_HDF5_01
 No named parameters
 OPTION 1 -- EVAPOTRANSPIRATION FROM TOP LAYER
 CELL-BY-CELL FLOWS WILL BE SAVED ON UNIT  740
       7500 ELEMENTS IN RX ARRAY ARE USED BY EVT
       2500 ELEMENTS IN IR ARRAY ARE USED BY EVT

 GHB6 -- GHB PACKAGE, VERSION 6, 1/11/2000 INPUT READ FROM UNIT  711
 #GMS_HDF5_01
 No named parameters
 MAXIMUM OF    510 ACTIVE GHB CELLS AT ONE TIME
 CELL-BY-CELL FLOWS WILL BE SAVED ON UNIT  740
 AUXILIARY GHB VARIABLE: IFACE           
 AUXILIARY GHB VARIABLE: CONDFACT        
 AUXILIARY GHB VARIABLE: CELLGRP         
       4080 ELEMENTS IN RX ARRAY ARE USED BY GHB

 RCH6 -- RECHARGE PACKAGE, VERSION 6, 1/11/2000 INPUT READ FROM UNIT  716
 #GMS_HDF5_01
 No named parameters
 OPTION 3 -- RECHARGE TO HIGHEST ACTIVE NODE IN EACH VERTICAL COLUMN
 CELL-BY-CELL FLOWS WILL BE SAVED ON UNIT  740
       2500 ELEMENTS IN RX ARRAY ARE USED BY RCH
       2500 ELEMENTS IN IR ARRAY ARE USED BY RCH

 STRM -- STREAM PACKAGE, VERSION 6, 6/98 INPUT READ FROM UNIT  717
 No named parameters
 MAXIMUM OF    109 ACTIVE STREAM NODES AT ONE TIME
 NUMBER OF STREAM SEGMENTS IS     30
 NUMBER OF STREAM TRIBUTARIES IS      1
 STREAM STAGES WILL BE CALCULATED USING A CONSTANT OF 86400.0000
 CELL BUDGETS WILL BE SAVED ON UNITS  740 AND    0
       1229 ELEMENTS IN RX ARRAY ARE USED FOR STREAMS
        635 ELEMENTS IN IR ARRAY ARE USED FOR STREAMS

 CHD6 -- TIME-VARIANT SPECIFIED-HEAD PACKAGE, VERSION 6, 1/11/2000
 INPUT READ FROM UNIT  713
 #GMS_HDF5_01
 No named parameters
 MAXIMUM OF    350 TIME-VARIANT SPECIFIED-HEAD CELLS AT ONE TIME
 AUXILIARY CHD VARIABLE: SHEADFACT       
 AUXILIARY CHD VARIABLE: EHEADFACT       
 AUXILIARY CHD VARIABLE: CELLGRP         
       2800 ELEMENTS IN RX ARRAY ARE USED BY CHD

      19397  ELEMENTS OF RX ARRAY USED OUT OF      19397
          0  ELEMENTS OF RZ ARRAY USED OUT OF          1
       5660  ELEMENTS OF IR ARRAY USED OUT OF       5660
1
 #GMS MODFLOW Simulation                                                         
 #01 June 2023                                                                   

                1           2           3           4           5           6           7           8           9          10
               11          12          13          14          15          16          17          18          19          20
               21          22          23          24          25          26          27          28          29          30
               31          32          33          34          35          36          37          38          39          40
               41          42          43          44          45          46          47          48          49          50
 ............................................................................................................................
   1            1           1           1           1           1           1           1           1           1           1
                1           1           1           1           1           1           1           1           1           1
                1           1           1           1           1           1           1           1           1           1
                1           1           1           1           1           1           1           1           1           1
                1           1           1           1           1           1           1           1           1           0
   2            1           1           1           1           1           1           1           1           1           1
                1           1           1           1           1           1           1           1           1           1
                1           1           1           1           1           1           1           1           1           1
                1           1           1           1           1           1           1           1           1           1
                1           1           1           1           1           1           1           1           1           0
   3            1           1           1           1           1           1           1           1           1           1
                1           1           1           1           1           1           1           1           1           1
                1           1           1           1           1           1           1           1           1           1
                1           1           1           1           1           1           1           1           1           1
                1           1           1           1           1           1           1           1           0           0
   4            1           1           1           1           1           1           1           1           1           1
                1           1           1           1           1           1           1           1           1           1
                1           1           1           1           1           1           1           1           1           1
                1           1           1           1           1           1           1           1           1           1
                1           1           1           1           1           1           1           1           0           0
   5            1           1           1           1           1           1           1           1           1           1
                1           1           1           1           1           1           1           1           1           1
                1           1           1           1           1           1           1           1           1           1
                1           1           1           1           1           1           1           1           1           1
                1           1           1           1           1           1           1           1           0           0
   6            1           1           1           1           1           1           1           1           1           1
                1           1           1           1           1           1           1           1           1           1
                1           1           1           1           1           1           1           1           1           1
                1           1           1           1           1           1           1           1           1           1
                1           1           1           1           1           1           1           1           0           0
   7            1           1           1           1           1           1           1           1           1           1
                1           1           1           1           1           1           1           1           1           1
                1           1           1           1           1           1           1           1           1           1
                1           1           1           1           1           1           1           1           1           1
                1           1           1           1           1           1           1           1           0           0
   8            1           1           1           1           1           1           1           1           1           1
                1           1           1           1           1           1           1           1           1           1
                1           1           1           1           1           1           1           1           1           1
                1           1           1           1           1           1           1           1           1           1
                1           1           1           1           1           1           1           1           1           0
   9            1           1           1           1           1           1           1           1           1           1
                1           1           1           1           1           1           1           1           1           1
                1           1           1           1           1           1           1           1           1           1
                1           1           1           1           1           1           1           1           1           1
                1           1           1           1           1           1           1           1           1           0
  10            1           1           1           1           1           1           1           1           1           1
                1           1           1           1           1           1           1           1           1           1
                1           1           1           1           1           1           1           1           1           1
                1           1           1           1           1           1           1           1           1           1
                1           1           1           1           1           1           1           1           1           0
  11            1           1           1           1           1           1           1           1           1           1
                1           1           1           1           1           1           1           1           1           1
                1           1           1           1           1           1           1           1           1           1
                1           1           1           1           1           1           1           1           1           1
                1           1           1           1           1           1           1           1           1           0
  12            1           1           1           1           1           1           1           1           1           1
                1           1           1           1           1           1           1           1           1           1
                1           1           1           1           1           1           1           1           1           1
                1           1           1           1           1           1           1           1           1           1
                1           1           1           1           1           1           1           1           1           0
  13            1           1           1           1           1           1           1           1           1           1
                1           1           1           1           1           1           1           1           1           1
                1           1           1           1           1           1           1           1           1           1
                1           1           1           1           1           1           1           1           1           1
                1           1           1           1           1           1           1           1           1           0
  14            1           1           1           1           1           1           1           1           1           1
                1           1           1           1           1           1           1           1           1           1
                1           1           1           1           1           1           1           1           1           1
                1           1           1           1           1           1           1           1           1           1
                1           1           1           1           1           1           1           1           1           0
  15            1           1           1           1           1           1           1           1           1           1
                1           1           1           1           1           1           1           1           1           1
                1           1           1           1           1           1           1           1           1           1
                1           1           1           1           1           1           1           1           1           1
                1           1           1           1           1           1           1           1           1           0
  16            1           1           1           1           1           1           1           1           1           1
                1           1           1           1           1           1           1           1           1           1
                1           1           1           1           1           1           1           1           1           1
                1           1           1           1           1           1           1           1           1           1
                1           1           1           1           1           1           1           1           0           0
  17            1           1           1           1           1           1           1           1           1           1
                1           1           1           1           1           1           1           1           1           1
                1           1           1           1           1           1           1           1           1           1
                1           1           1           1           1           1           1           1           1           1
                1           1           1           1           1           1           1           1           0           0
  18            1           1           1           1           1           1           1           1           1           1
                1           1           1           1           1           1           1           1           1           1
                1           1           1           1           1           1           1           1           1           1
                1           1           1           1           1           1           1           1           1           1
                1           1           1           1           1           1           1           1           0           0
  19            1           1           1           1           1           1           1           1           1           1
                1           1           1           1           1           1           1           1           1           1
                1           1           1           1           1           1           1           1           1           1
                1           1           1           1           1           1           1           1           1           1
                1           1           1           1           1           1           1           0           0           0
  20            1           1           1           1           1           1           1           1           1           1
                1           1           1           1           1           1           1           1           1           1
                1           1           1           1           1           1           1           1           1           1
                1           1           1           1           1           1           1           1           1           1
                1           1           1           1           1           1           0           0           0           0
  21            1           1           1           1           1           1           1           1           1           1
                1           1           1           1           1           1           1           1           1           1
                1           1           1           1           1           1           1           1           1           1
                1           1           1           1           1           1           1           1           1           1
                1           1           1           1           1           1           0           0           0           0
  22            1           1           1           1           1           1           1           1           1           1
                1           1           1           1           1           1           1           1           1           1
                1           1           1           1           1           1           1           1           1           1
                1           1           1           1           1           1           1           1           1           1
                1           1           1           1           1           1           0           0           0           0
  23            1           1           1           1           1           1           1           1           1           1
                1           1           1           1           1           1           1           1           1           1
                1           1           1           1           1           1           1           1           1           1
                1           1           1           1           1           1           1           1           1           1
                1           1           1           1           1           0           0           0           0           0
  24            1           1           1           1           1           1           1           1           1           1
                1           1           1           1           1           1           1           1           1           1
                1           1           1           1           1           1           1           1           1           1
                1           1           1           1           1           1           1           1           1           1
                1           1           1           1           1           0           0           0           0           0
  25            1           1           1           1           1           1           1           1           1           1
                1           1           1           1           1           1           1           1           1           1
                1           1           1           1           1           1           1           1           1           1
                1           1           1           1           1           1           1           1           1           1
                1           1           1           1           1           0           0           0           0           0
  26            1           1           1           1           1           1           1           1           1           1
                1           1           1           1           1           1           1           1           1           1
                1           1           1           1           1           1           1           1           1           1
                1           1           1           1           1           1           1           1           1           1
                1           1           1           1           1           0           0           0           0           0
  27            1           1           1           1           1           1           1           1           1           1
                1           1           1           1           1           1           1           1           1           1
                1           1           1           1           1           1           1           1           1           1
                1           1           1           1           1           1           1           1           1           1
                1           1           1           1           1           0           0           0           0           0
  28            1           1           1           1           1           1           1           1           1           1
                1           1           1           1           1           1           1           1           1           1
                1           1           1           1           1           1           1           1           1           1
                1           1           1           1           1           1           1           1           1           1
                1           1           1           1           1           0           0           0           0           0
  29            1           1           1           1           1           1           1           1           1           1
                1           1           1           1           1           1           1           1           1           1
                1           1           1           1           1           1           1           1           1           1
                1           1           1           1           1           1           1           1           1           1
                1           1           1           1           1           0           0           0           0           0
  30            1           1           1           1           1           1           1           1           1           1
                1           1           1           1           1           1           1           1           1           1
                1           1           1           1           1           1           1           1           1           1
                1           1           1           1           1           1           1           1           1           1
                1           1           1           1           1           0           0           0           0           0
  31            1           1           1           1           1           1           1           1           1           1
                1           1           1           1           1           1           1           1           1           1
                1           1           1           1           1           1           1           1           1           1
                1           1           1           1           1           1           1           1           1           1
                1           1           1           1           1           0           0           0           0           0
  32            1           1           1           1           1           1           1           1           1           1
                1           1           1           1           1           1           1           1           1           1
                1           1           1           1           1           1           1           1           1           1
                1           1           1           1           1           1           1           1           1           1
                1           1           1           1           0           0           0           0           0           0
  33            1           1           1           1           1           1           1           1           1           1
                1           1           1           1           1           1           1           1           1           1
                1           1           1           1           1           1           1           1           1           1
                1           1           1           1           1           1           1           1           1           1
                1           1           1           1           0           0           0           0           0           0
  34            1           1           1           1           1           1           1           1           1           1
                1           1           1           1           1           1           1           1           1           1
                1           1           1           1           1           1           1           1           1           1
                1           1           1           1           1           1           1           1           1           1
                1           1           1           1           0           0           0           0           0           0
  35            1           1           1           1           1           1           1           1           1           1
                1           1           1           1           1           1           1           1           1           1
                1           1           1           1           1           1           1           1           1           1
                1           1           1           1           1           1           1           1           1           1
                1           1           1           1           0           0           0           0           0           0
  36            1           1           1           1           1           1           1           1           1           1
                1           1           1           1           1           1           1           1           1           1
                1           1           1           1           1           1           1           1           1           1
                1           1           1           1           1           1           1           1           1           1
                1           1           1           1           0           0           0           0           0           0
  37            1           1           1           1           1           1           1           1           1           1
                1           1           1           1           1           1           1           1           1           1
                1           1           1           1           1           1           1           1           1           1
                1           1           1           1           1           1           1           1           1           1
                1           1           1           0           0           0           0           0           0           0
  38            1           1           1           1           1           1           1           1           1           1
                1           1           1           1           1           1           1           1           1           1
                1           1           1           1           1           1           1           1           1           1
                1           1           1           1           1           1           1           1           1           1
                1           1           1           0           0           0           0           0           0           0
  39            1           1           1           1           1           1           1           1           1           1
                1           1           1           1           1           1           1           1           1           1
                1           1           1           1           1           1           1           1           1           1
                1           1           1           1           1           1           1           1           1           1
                1           1           0           0           0           0           0           0           0           0
  40            1           1           1           1           1           1           1           1           1           1
                1           1           1           1           1           1           1           1           1           1
                1           1           1           1           1           1           1           1           1           1
                1           1           1           1           1           1           1           1           1           1
                1           1           0           0           0           0           0           0           0           0
  41            1           1           1           1           1           1           1           1           1           1
                1           1           1           1           1           1           1           1           1           1
                1           1           1           1           1           1           1           1           1           1
                1           1           1           1           1           1           1           1           1           1
                1           0           0           0           0           0           0           0           0           0
  42            1           1           1           1           1           1           1           1           1           1
                1           1           1           1           1           1           1           1           1           1
                1           1           1           1           1           1           1           1           1           1
                1           1           1           1           1           1           1           1           1           1
                1           0           0           0           0           0           0           0           0           0
  43            1           1           1           1           1           1           1           1           1           1
                1           1           1           1           1           1           1           1           1           1
                1           1           1           1           1           1           1           1           1           1
                1           1           1           1           1           1           1           1           1           1
                1           0           0           0           0           0           0           0           0           0
  44            1           1           1           1           1           1           1           1           1           1
                1           1           1           1           1           1           1           1           1           1
                1           1           1           1           1           1           1           1           1           1
                1           1           1           1           1           1           1           1           1           1
                0           0           0           0           0           0           0           0           0           0
  45            1           1           1           1           1           1           1           1           1           1
                1           1           1           1           1           1           1           1           1           1
                1           1           1           1           1           1           1           1           1           1
                1           1           1           1           1           1           1           1           1           1
                0           0           0           0           0           0           0           0           0           0
  46            1           1           1           1           1           1           1           1           1           1
                1           1           1           1           1           1           1           1           1           1
                1           1           1           1           1           1           1           1           1           1
                1           1           1           1           1           1           1           1           1           1
                0           0           0           0           0           0           0           0           0           0
  47            1           1           1           1           1           1           1           1           1           1
                1           1           1           1           1           1           1           1           1           1
                1           1           1           1           1           1           1           1           1           1
                1           1           1           1           1           1           1           1           1           1
                0           0           0           0           0           0           0           0           0           0
  48            1           1           1           1           1           1           1           1           1           1
                1           1           1           1           1           1           1           1           1           1
                1           1           1           1           1           1           1           1           1           1
                1           1           1           1           1           1           1           1           1           1
                0           0           0           0           0           0           0           0           0           0
  49            1           1           1           1           1           1           1           1           1           1
                1           1           1           1           1           1           1           1           1           1
                1           1           1           1           1           1           1           1           1           1
                1           1           1           1           1           1           1           1           1           1
                0           0           0           0           0           0           0           0           0           0
  50            1           1           1           1           1           1           1           1           1           1
                1           1           1           1           1           1           1           1           1           1
                1           1           1           1           1           1           1           1           1           1
                1           1           1           1           1           1           1           1           1           1
                0           0           0           0           0           0           0           0           0           0

                1           2           3           4           5           6           7           8           9          10
               11          12          13          14          15          16          17          18          19          20
               21          22          23          24          25          26          27          28          29          30
               31          32          33          34          35          36          37          38          39          40
               41          42          43          44          45          46          47          48          49          50
 ............................................................................................................................
   1            1           1           1           1           1           1           1           1           1           1
                1           1           1           1           1           1           1           1           1           1
                1           1           1           1           1           1           1           1           1           1
                1           1           1           1           1           1           1           1           1           1
                1           1           1           1           1           1           1           1           1           0
   2            1           1           1           1           1           1           1           1           1           1
                1           1           1           1           1           1           1           1           1           1
                1           1           1           1           1           1           1           1           1           1
                1           1           1           1           1           1           1           1           1           1
                1           1           1           1           1           1           1           1           1           0
   3            1           1           1           1           1           1           1           1           1           1
                1           1           1           1           1           1           1           1           1           1
                1           1           1           1           1           1           1           1           1           1
                1           1           1           1           1           1           1           1           1           1
                1           1           1           1           1           1           1           1           0           0
   4            1           1           1           1           1           1           1           1           1           1
                1           1           1           1           1           1           1           1           1           1
                1           1           1           1           1           1           1           1           1           1
                1           1           1           1           1           1           1           1           1           1
                1           1           1           1           1           1           1           1           0           0
   5            1           1           1           1           1           1           1           1           1           1
                1           1           1           1           1           1           1           1           1           1
                1           1           1           1           1           1           1           1           1           1
                1           1           1           1           1           1           1           1           1           1
                1           1           1           1           1           1           1           1           0           0
   6            1           1           1           1           1           1           1           1           1           1
                1           1           1           1           1           1           1           1           1           1
                1           1           1           1           1           1           1           1           1           1
                1           1           1           1           1           1           1           1           1           1
                1           1           1           1           1           1           1           1           0           0
   7            1           1           1           1           1           1           1           1           1           1
                1           1           1           1           1           1           1           1           1           1
                1           1           1           1           1           1           1           1           1           1
                1           1           1           1           1           1           1           1           1           1
                1           1           1           1           1           1           1           1           0           0
   8            1           1           1           1           1           1           1           1           1           1
                1           1           1           1           1           1           1           1           1           1
                1           1           1           1           1           1           1           1           1           1
                1           1           1           1           1           1           1           1           1           1
                1           1           1           1           1           1           1           1           1           0
   9            1           1           1           1           1           1           1           1           1           1
                1           1           1           1           1           1           1           1           1           1
                1           1           1           1           1           1           1           1           1           1
                1           1           1           1           1           1           1           1           1           1
                1           1           1           1           1           1           1           1           1           0
  10            1           1           1           1           1           1           1           1           1           1
                1           1           1           1           1           1           1           1           1           1
                1           1           1           1           1           1           1           1           1           1
                1           1           1           1           1           1           1           1           1           1
                1           1           1           1           1           1           1           1           1           0
  11            1           1           1           1           1           1           1           1           1           1
                1           1           1           1           1           1           1           1           1           1
                1           1           1           1           1           1           1           1           1           1
                1           1           1           1           1           1           1           1           1           1
                1           1           1           1           1           1           1           1           1           0
  12            1           1           1           1           1           1           1           1           1           1
                1           1           1           1           1           1           1           1           1           1
                1           1           1           1           1           1           1           1           1           1
                1           1           1           1           1           1           1           1           1           1
                1           1           1           1           1           1           1           1           1           0
  13            1           1           1           1           1           1           1           1           1           1
                1           1           1           1           1           1           1           1           1           1
                1           1           1           1           1           1           1           1           1           1
                1           1           1           1           1           1           1           1           1           1
                1           1           1           1           1           1           1           1           1           0
  14            1           1           1           1           1           1           1           1           1           1
                1           1           1           1           1           1           1           1           1           1
                1           1           1           1           1           1           1           1           1           1
                1           1           1           1           1           1           1           1           1           1
                1           1           1           1           1           1           1           1           1           0
  15            1           1           1           1           1           1           1           1           1           1
                1           1           1           1           1           1           1           1           1           1
                1           1           1           1           1           1           1           1           1           1
                1           1           1           1           1           1           1           1           1           1
                1           1           1           1           1           1           1           1           1           0
  16            1           1           1           1           1           1           1           1           1           1
                1           1           1           1           1           1           1           1           1           1
                1           1           1           1           1           1           1           1           1           1
                1           1           1           1           1           1           1           1           1           1
                1           1           1           1           1           1           1           1           0           0
  17            1           1           1           1           1           1           1           1           1           1
                1           1           1           1           1           1           1           1           1           1
                1           1           1           1           1           1           1           1           1           1
                1           1           1           1           1           1           1           1           1           1
                1           1           1           1           1           1           1           1           0           0
  18            1           1           1           1           1           1           1           1           1           1
                1           1           1           1           1           1           1           1           1           1
                1           1           1           1           1           1           1           1           1           1
                1           1           1           1           1           1           1           1           1           1
                1           1           1           1           1           1           1           1           0           0
  19            1           1           1           1           1           1           1           1           1           1
                1           1           1           1           1           1           1           1           1           1
                1           1           1           1           1           1           1           1           1           1
                1           1           1           1           1           1           1           1           1           1
                1           1           1           1           1           1           1           0           0           0
  20            1           1           1           1           1           1           1           1           1           1
                1           1           1           1           1           1           1           1           1           1
                1           1           1           1           1           1           1           1           1           1
                1           1           1           1           1           1           1           1           1           1
                1           1           1           1           1           1           0           0           0           0
  21            1           1           1           1           1           1           1           1           1           1
                1           1           1           1           1           1           1           1           1           1
                1           1           1           1           1           1           1           1           1           1
                1           1           1           1           1           1           1           1           1           1
                1           1           1           1           1           1           0           0           0           0
  22            1           1           1           1           1           1           1           1           1           1
                1           1           1           1           1           1           1           1           1           1
                1           1           1           1           1           1           1           1           1           1
                1           1           1           1           1           1           1           1           1           1
                1           1           1           1           1           1           0           0           0           0
  23            1           1           1           1           1           1           1           1           1           1
                1           1           1           1           1           1           1           1           1           1
                1           1           1           1           1           1           1           1           1           1
                1           1           1           1           1           1           1           1           1           1
                1           1           1           1           1           0           0           0           0           0
  24            1           1           1           1           1           1           1           1           1           1
                1           1           1           1           1           1           1           1           1           1
                1           1           1           1           1           1           1           1           1           1
                1           1           1           1           1           1           1           1           1           1
                1           1           1           1           1           0           0           0           0           0
  25            1           1           1           1           1           1           1           1           1           1
                1           1           1           1           1           1           1           1           1           1
                1           1           1           1           1           1           1           1           1           1
                1           1           1           1           1           1           1           1           1           1
                1           1           1           1           1           0           0           0           0           0
  26            1           1           1           1           1           1           1           1           1           1
                1           1           1           1           1           1           1           1           1           1
                1           1           1           1           1           1           1           1           1           1
                1           1           1           1           1           1           1           1           1           1
                1           1           1           1           1           0           0           0           0           0
  27            1           1           1           1           1           1           1           1           1           1
                1           1           1           1           1           1           1           1           1           1
                1           1           1           1           1           1           1           1           1           1
                1           1           1           1           1           1           1           1           1           1
                1           1           1           1           1           0           0           0           0           0
  28            1           1           1           1           1           1           1           1           1           1
                1           1           1           1           1           1           1           1           1           1
                1           1           1           1           1           1           1           1           1           1
                1           1           1           1           1           1           1           1           1           1
                1           1           1           1           1           0           0           0           0           0
  29            1           1           1           1           1           1           1           1           1           1
                1           1           1           1           1           1           1           1           1           1
                1           1           1           1           1           1           1           1           1           1
                1           1           1           1           1           1           1           1           1           1
                1           1           1           1           1           0           0           0           0           0
  30            1           1           1           1           1           1           1           1           1           1
                1           1           1           1           1           1           1           1           1           1
                1           1           1           1           1           1           1           1           1           1
                1           1           1           1           1           1           1           1           1           1
                1           1           1           1           1           0           0           0           0           0
  31            1           1           1           1           1           1           1           1           1           1
                1           1           1           1           1           1           1           1           1           1
                1           1           1           1           1           1           1           1           1           1
                1           1           1           1           1           1           1           1           1           1
                1           1           1           1           1           0           0           0           0           0
  32            1           1           1           1           1           1           1           1           1           1
                1           1           1           1           1           1           1           1           1           1
                1           1           1           1           1           1           1           1           1           1
                1           1           1           1           1           1           1           1           1           1
                1           1           1           1           0           0           0           0           0           0
  33            1           1           1           1           1           1           1           1           1           1
                1           1           1           1           1           1           1           1           1           1
                1           1           1           1           1           1           1           1           1           1
                1           1           1           1           1           1           1           1           1           1
                1           1           1           1           0           0           0           0           0           0
  34            1           1           1           1           1           1           1           1           1           1
                1           1           1           1           1           1           1           1           1           1
                1           1           1           1           1           1           1           1           1           1
                1           1           1           1           1           1           1           1           1           1
                1           1           1           1           0           0           0           0           0           0
  35            1           1           1           1           1           1           1           1           1           1
                1           1           1           1           1           1           1           1           1           1
                1           1           1           1           1           1           1           1           1           1
                1           1           1           1           1           1           1           1           1           1
                1           1           1           1           0           0           0           0           0           0
  36            1           1           1           1           1           1           1           1           1           1
                1           1           1           1           1           1           1           1           1           1
                1           1           1           1           1           1           1           1           1           1
                1           1           1           1           1           1           1           1           1           1
                1           1           1           1           0           0           0           0           0           0
  37            1           1           1           1           1           1           1           1           1           1
                1           1           1           1           1           1           1           1           1           1
                1           1           1           1           1           1           1           1           1           1
                1           1           1           1           1           1           1           1           1           1
                1           1           1           0           0           0           0           0           0           0
  38            1           1           1           1           1           1           1           1           1           1
                1           1           1           1           1           1           1           1           1           1
                1           1           1           1           1           1           1           1           1           1
                1           1           1           1           1           1           1           1           1           1
                1           1           1           0           0           0           0           0           0           0
  39            1           1           1           1           1           1           1           1           1           1
                1           1           1           1           1           1           1           1           1           1
                1           1           1           1           1           1           1           1           1           1
                1           1           1           1           1           1           1           1           1           1
                1           1           0           0           0           0           0           0           0           0
  40            1           1           1           1           1           1           1           1           1           1
                1           1           1           1           1           1           1           1           1           1
                1           1           1           1           1           1           1           1           1           1
                1           1           1           1           1           1           1           1           1           1
                1           1           0           0           0           0           0           0           0           0
  41            1           1           1           1           1           1           1           1           1           1
                1           1           1           1           1           1           1           1           1           1
                1           1           1           1           1           1           1           1           1           1
                1           1           1           1           1           1           1           1           1           1
                1           0           0           0           0           0           0           0           0           0
  42            1           1           1           1           1           1           1           1           1           1
                1           1           1           1           1           1           1           1           1           1
                1           1           1           1           1           1           1           1           1           1
                1           1           1           1           1           1           1           1           1           1
                1           0           0           0           0           0           0           0           0           0
  43            1           1           1           1           1           1           1           1           1           1
                1           1           1           1           1           1           1           1           1           1
                1           1           1           1           1           1           1           1           1           1
                1           1           1           1           1           1           1           1           1           1
                1           0           0           0           0           0           0           0           0           0
  44            1           1           1           1           1           1           1           1           1           1
                1           1           1           1           1           1           1           1           1           1
                1           1           1           1           1           1           1           1           1           1
                1           1           1           1           1           1           1           1           1           1
                0           0           0           0           0           0           0           0           0           0
  45            1           1           1           1           1           1           1           1           1           1
                1           1           1           1           1           1           1           1           1           1
                1           1           1           1           1           1           1           1           1           1
                1           1           1           1           1           1           1           1           1           1
                0           0           0           0           0           0           0           0           0           0
  46            1           1           1           1           1           1           1           1           1           1
                1           1           1           1           1           1           1           1           1           1
                1           1           1           1           1           1           1           1           1           1
                1           1           1           1           1           1           1           1           1           1
                0           0           0           0           0           0           0           0           0           0
  47            1           1           1           1           1           1           1           1           1           1
                1           1           1           1           1           1           1           1           1           1
                1           1           1           1           1           1           1           1           1           1
                1           1           1           1           1           1           1           1           1           1
                0           0           0           0           0           0           0           0           0           0
  48            1           1           1           1           1           1           1           1           1           1
                1           1           1           1           1           1           1           1           1           1
                1           1           1           1           1           1           1           1           1           1
                1           1           1           1           1           1           1           1           1           1
                0           0           0           0           0           0           0           0           0           0
  49            1           1           1           1           1           1           1           1           1           1
                1           1           1           1           1           1           1           1           1           1
                1           1           1           1           1           1           1           1           1           1
                1           1           1           1           1           1           1           1           1           1
                0           0           0           0           0           0           0           0           0           0
  50            1           1           1           1           1           1           1           1           1           1
                1           1           1           1           1           1           1           1           1           1
                1           1           1           1           1           1           1           1           1           1
                1           1           1           1           1           1           1           1           1           1
                0           0           0           0           0           0           0           0           0           0

                1           2           3           4           5           6           7           8           9          10
               11          12          13          14          15          16          17          18          19          20
               21          22          23          24          25          26          27          28          29          30
               31          32          33          34          35          36          37          38          39          40
               41          42          43          44          45          46          47          48          49          50
 ............................................................................................................................
   1            1           1           1           1           1           1           1           1           1           1
                1           1           1           1           1           1           1           1           1           1
                1           1           1           1           1           1           1           1           1           1
                1           1           1           1           1           1           1           1           1           1
                1           1           1           1           1           1           1           1           1           0
   2            1           1           1           1           1           1           1           1           1           1
                1           1           1           1           1           1           1           1           1           1
                1           1           1           1           1           1           1           1           1           1
                1           1           1           1           1           1           1           1           1           1
                1           1           1           1           1           1           1           1           1           0
   3            1           1           1           1           1           1           1           1           1           1
                1           1           1           1           1           1           1           1           1           1
                1           1           1           1           1           1           1           1           1           1
                1           1           1           1           1           1           1           1           1           1
                1           1           1           1           1           1           1           1           0           0
   4            1           1           1           1           1           1           1           1           1           1
                1           1           1           1           1           1           1           1           1           1
                1           1           1           1           1           1           1           1           1           1
                1           1           1           1           1           1           1           1           1           1
                1           1           1           1           1           1           1           1           0           0
   5            1           1           1           1           1           1           1           1           1           1
                1           1           1           1           1           1           1           1           1           1
                1           1           1           1           1           1           1           1           1           1
                1           1           1           1           1           1           1           1           1           1
                1           1           1           1           1           1           1           1           0           0
   6            1           1           1           1           1           1           1           1           1           1
                1           1           1           1           1           1           1           1           1           1
                1           1           1           1           1           1           1           1           1           1
                1           1           1           1           1           1           1           1           1           1
                1           1           1           1           1           1           1           1           0           0
   7            1           1           1           1           1           1           1           1           1           1
                1           1           1           1           1           1           1           1           1           1
                1           1           1           1           1           1           1           1           1           1
                1           1           1           1           1           1           1           1           1           1
                1           1           1           1           1           1           1           1           0           0
   8            1           1           1           1           1           1           1           1           1           1
                1           1           1           1           1           1           1           1           1           1
                1           1           1           1           1           1           1           1           1           1
                1           1           1           1           1           1           1           1           1           1
                1           1           1           1           1           1           1           1           1           0
   9            1           1           1           1           1           1           1           1           1           1
                1           1           1           1           1           1           1           1           1           1
                1           1           1           1           1           1           1           1           1           1
                1           1           1           1           1           1           1           1           1           1
                1           1           1           1           1           1           1           1           1           0
  10            1           1           1           1           1           1           1           1           1           1
                1           1           1           1           1           1           1           1           1           1
                1           1           1           1           1           1           1           1           1           1
                1           1           1           1           1           1           1           1           1           1
                1           1           1           1           1           1           1           1           1           0
  11            1           1           1           1           1           1           1           1           1           1
                1           1           1           1           1           1           1           1           1           1
                1           1           1           1           1           1           1           1           1           1
                1           1           1           1           1           1           1           1           1           1
                1           1           1           1           1           1           1           1           1           0
  12            1           1           1           1           1           1           1           1           1           1
                1           1           1           1           1           1           1           1           1           1
                1           1           1           1           1           1           1           1           1           1
                1           1           1           1           1           1           1           1           1           1
                1           1           1           1           1           1           1           1           1           0
  13            1           1           1           1           1           1           1           1           1           1
                1           1           1           1           1           1           1           1           1           1
                1           1           1           1           1           1           1           1           1           1
                1           1           1           1           1           1           1           1           1           1
                1           1           1           1           1           1           1           1           1           0
  14            1           1           1           1           1           1           1           1           1           1
                1           1           1           1           1           1           1           1           1           1
                1           1           1           1           1           1           1           1           1           1
                1           1           1           1           1           1           1           1           1           1
                1           1           1           1           1           1           1           1           1           0
  15            1           1           1           1           1           1           1           1           1           1
                1           1           1           1           1           1           1           1           1           1
                1           1           1           1           1           1           1           1           1           1
                1           1           1           1           1           1           1           1           1           1
                1           1           1           1           1           1           1           1           1           0
  16            1           1           1           1           1           1           1           1           1           1
                1           1           1           1           1           1           1           1           1           1
                1           1           1           1           1           1           1           1           1           1
                1           1           1           1           1           1           1           1           1           1
                1           1           1           1           1           1           1           1           0           0
  17            1           1           1           1           1           1           1           1           1           1
                1           1           1           1           1           1           1           1           1           1
                1           1           1           1           1           1           1           1           1           1
                1           1           1           1           1           1           1           1           1           1
                1           1           1           1           1           1           1           1           0           0
  18            1           1           1           1           1           1           1           1           1           1
                1           1           1           1           1           1           1           1           1           1
                1           1           1           1           1           1           1           1           1           1
                1           1           1           1           1           1           1           1           1           1
                1           1           1           1           1           1           1           1           0           0
  19            1           1           1           1           1           1           1           1           1           1
[...]
                      AFFECTED.

 OBS#     28, ID drnf9       , TIME STEP     1
    LAYER   ROW  COLUMN
      1     36     43
      1 OF THE     10 REACHES OR CELLS USED TO SIMULATE THE GAIN OR LOSS ARE
                      AFFECTED.

 OBS#     29, ID drnf10      , TIME STEP     1
    LAYER   ROW  COLUMN
      1     41     41
      1 OF THE      8 REACHES OR CELLS USED TO SIMULATE THE GAIN OR LOSS ARE
                      AFFECTED.

 OBS#     31, ID drnf12      , TIME STEP     1
    LAYER   ROW  COLUMN
      1     41     41
      1     42     40
      1     42     41
      1     43     39
      1     43     40
      1     43     41
      6 OF THE      9 REACHES OR CELLS USED TO SIMULATE THE GAIN OR LOSS ARE
                      AFFECTED.

 OBS#     32, ID drnf13      , TIME STEP     1
    LAYER   ROW  COLUMN
      1     48     40
      1 OF THE      6 REACHES OR CELLS USED TO SIMULATE THE GAIN OR LOSS ARE
                      AFFECTED.

 OBS#     33, ID drnf14      , TIME STEP     1
    LAYER   ROW  COLUMN
      1     46     39
      1     46     40
      1     47     40
      1     48     40
      4 OF THE      6 REACHES OR CELLS USED TO SIMULATE THE GAIN OR LOSS ARE
                      AFFECTED.

 OBS#     34, ID drnf15      , TIME STEP     1
    LAYER   ROW  COLUMN
      1     43     39
      1 OF THE      9 REACHES OR CELLS USED TO SIMULATE THE GAIN OR LOSS ARE
                      AFFECTED.

 OBS#     35, ID drnf16      , TIME STEP     1
    LAYER   ROW  COLUMN
      1     14     49
      1     16     47
      1     16     48
      3 OF THE      8 REACHES OR CELLS USED TO SIMULATE THE GAIN OR LOSS ARE
                      AFFECTED.

 OBS#     36, ID drnf17      , TIME STEP     1
    LAYER   ROW  COLUMN
      1      2     48
      1      5     48
      2 OF THE      8 REACHES OR CELLS USED TO SIMULATE THE GAIN OR LOSS ARE
                      AFFECTED.

 OBS#     38, ID drnf19      , TIME STEP     1
    LAYER   ROW  COLUMN
      1      6     48
      1      7     48
      2 OF THE      7 REACHES OR CELLS USED TO SIMULATE THE GAIN OR LOSS ARE
                      AFFECTED.

 OBS#     40, ID drnf21      , TIME STEP     1
    LAYER   ROW  COLUMN
      1     16     47
      1 OF THE      7 REACHES OR CELLS USED TO SIMULATE THE GAIN OR LOSS ARE
                      AFFECTED.

 OBS#     41, ID drnf22      , TIME STEP     1
    LAYER   ROW  COLUMN
      1     18     47
      1     18     48
      1     19     47
      3 OF THE      8 REACHES OR CELLS USED TO SIMULATE THE GAIN OR LOSS ARE
                      AFFECTED.

 HEADS AT STREAM CELLS ARE BELOW THE BOTTOM OF THE STREAM BED AT THE CELLS LISTED
 BELOW.  THESE CONDITIONS DIMINISH THE IMPACT OF THE OBSERVATION ON ESTIMATES OF
 ALL PARAMETERS EXCEPT THOSE THAT CONTROL THE HYDRAULIC CONDUCTIVITY OF THE
 STREAM BED.  (SEE TEXT FOR MORE INFORMATION).

 FOR THE CELLS LISTED BELOW, ONE OF TWO CONDITIONS EXIST, AS INDICATED BY THE
 ABSENCE OR PRESENCE OF AN ASTERISK (*). IF THE OBSERVATION IS BEING USED FOR
 PARAMETER ESTIMATION, THESE CONDITIONS CAN DIMINISH THE IMPACT OF THE
 OBSERVATION FOR SOME PARAMETERS.
 NO *: AQUIFER HEAD AT THE STREAM CELL IS BELOW THE BOTTOM OF THE STREAMBED.
 *   : SEEPAGE TO THE AQUIFER IS LIMITED BY AVAILABLE STREAMFLOW.

 OBS#     70, ID strf7       , TIME STEP     1
   SEGMENT REACH
 *   23      2
      1 OF THE      2 REACHES OR CELLS USED TO SIMULATE THE GAIN OR LOSS ARE
                      AFFECTED.

 OBS#     71, ID strf8       , TIME STEP     1
   SEGMENT REACH
 *   24      1
 *   24      2
 *   24      3
      3 OF THE      3 REACHES OR CELLS USED TO SIMULATE THE GAIN OR LOSS ARE
                      AFFECTED.

 OBS#     72, ID strf9       , TIME STEP     1
   SEGMENT REACH
 *   25      1
 *   25      2
      2 OF THE      2 REACHES OR CELLS USED TO SIMULATE THE GAIN OR LOSS ARE
                      AFFECTED.

 OBS#     73, ID strf10      , TIME STEP     1
   SEGMENT REACH
 *   26      1
 *   26      2
      2 OF THE      2 REACHES OR CELLS USED TO SIMULATE THE GAIN OR LOSS ARE
                      AFFECTED.

 OBS#     74, ID strf11      , TIME STEP     1
   SEGMENT REACH
 *   27      1
 *   27      2
      2 OF THE      2 REACHES OR CELLS USED TO SIMULATE THE GAIN OR LOSS ARE
                      AFFECTED.

 OBS#     75, ID strf12      , TIME STEP     1
   SEGMENT REACH
 *   28      1
 *   28      2
 *   28      3
      3 OF THE      3 REACHES OR CELLS USED TO SIMULATE THE GAIN OR LOSS ARE
                      AFFECTED.

 OBS#     76, ID strf13      , TIME STEP     1
   SEGMENT REACH
 *   29      1
 *   29      2
      2 OF THE      2 REACHES OR CELLS USED TO SIMULATE THE GAIN OR LOSS ARE
                      AFFECTED.

 OBS#     77, ID strf14      , TIME STEP     1
   SEGMENT REACH
 *   30      1
 *   30      2
 *   30      3
      3 OF THE      3 REACHES OR CELLS USED TO SIMULATE THE GAIN OR LOSS ARE
                      AFFECTED.

 DATA AT HEAD LOCATIONS

        OBSERVATION     OBSER-     SIMUL.                          WEIGHTED
   OBS#    NAME         VATION     EQUIV.    RESIDUAL  WEIGHT**.5  RESIDUAL
                          *          *
      1 hed1            93.3       92.5      0.734      0.185E-02  0.136E-02
      2 hed2            92.7       92.7     -0.629E-02  0.252     -0.159E-02
      3 hed3            92.3       92.9     -0.605      0.270     -0.163    
      4 hed4            90.8       90.9     -0.102      0.973E-01 -0.991E-02
      5 hed5            89.2       89.5     -0.341      0.267     -0.910E-01
      6 hed6            88.8       88.2      0.620      0.278      0.173    
      7 hed7            88.3       87.8      0.488      0.289      0.141    
      8 hed8            88.2       87.8      0.339      0.289      0.979E-01
      9 hed9            88.1       88.8     -0.782      0.211     -0.165    
     10 hed10           87.8       85.5       2.34      0.199      0.465    
     11 hed11           87.8       84.2       3.61      0.291       1.05    
     12 hed12           85.5       83.4       2.16      0.198E-01  0.427E-01
     13 hed13           84.9       82.1       2.78      0.506E-01  0.140    
     14 hed14           84.6       80.8       3.81      0.321E-01  0.122    
     15 hed15           84.5       80.3       4.17      0.105      0.437    
     16 hed16           84.4       80.9       3.55      0.506E-01  0.180    
     17 hed17           84.0       79.6       4.38      0.204      0.891    
     18 hed18           83.9       81.7       2.22      0.201E-02  0.446E-02

 * THE OBSERVATION (AND CORRESPONDING SIMULATED EQUIVALENT) IS HEAD OR TEMPORAL
   CHANGE IN HEAD, AS SPECIFIED IN THE "HOB" INPUT FILE.  NEGATIVE TEMPORAL
   CHANGES INDICATE DRAWDOWN.

 STATISTICS FOR HEAD RESIDUALS :
 MAXIMUM WEIGHTED RESIDUAL  :  1.05     OBS#     11
 MINIMUM WEIGHTED RESIDUAL  :-0.165     OBS#      9
 AVERAGE WEIGHTED RESIDUAL  : 0.184    
 # RESIDUALS >= 0. :     13
 # RESIDUALS < 0.  :      5
 NUMBER OF RUNS  :    5  IN   18 OBSERVATIONS

 SUM OF SQUARED WEIGHTED RESIDUALS (HEADS ONLY)   2.4956    

 DATA FOR FLOWS REPRESENTED USING THE DRAIN PACKAGE

       OBSERVATION      MEAS.      CALC.                          WEIGHTED
  OBS#    NAME          FLOW       FLOW     RESIDUAL  WEIGHT**.5  RESIDUAL

    19 drnf0         -0.138E+04  -790.      -587.      0.907E-03 -0.532    
    20 drnf1         -0.134E+04  -787.      -552.      0.219E-04 -0.121E-01
    21 drnf2         -0.155E+04 -0.242E+04   863.      0.510E-03  0.440    
    22 drnf3         -0.145E+04 -0.196E+04   506.      0.207E-02   1.05    
    23 drnf4         -0.143E+04 -0.147E+04   44.8      0.188E-02  0.843E-01
    24 drnf5         -0.158E+04 -0.254E+04   960.      0.219E-03  0.211    
    25 drnf6         -0.147E+04 -0.202E+04   554.      0.199E-02   1.10    
    26 drnf7         -0.135E+04  -169.     -0.118E+04  0.561E-03 -0.665    
    27 drnf8         -0.143E+04  -716.      -715.      0.192E-02  -1.38    
    28 drnf9         -0.153E+04 -0.201E+04   480.      0.808E-03  0.388    
    29 drnf10        -0.147E+04  -735.      -738.      0.192E-02  -1.42    
    30 drnf11        -0.146E+04 -0.120E+04  -262.      0.203E-02 -0.532    
    31 drnf12        -0.147E+04  -240.     -0.123E+04  0.188E-02  -2.32    
    32 drnf13        -0.148E+04  -935.      -549.      0.174E-02 -0.952    
    33 drnf14        -0.138E+04  -291.     -0.109E+04  0.104E-02  -1.14    
    34 drnf15        -0.176E+04 -0.310E+04  0.134E+04  0.264E-04  0.352E-01
    35 drnf16        -0.136E+04  -466.      -897.      0.681E-03 -0.611    
    36 drnf17        -0.145E+04 -0.127E+04  -184.      0.207E-02 -0.379    
    37 drnf18        -0.137E+04  -521.      -852.      0.855E-03 -0.728    
    38 drnf19        -0.139E+04  -672.      -714.      0.109E-02 -0.781    
    39 drnf20        -0.150E+04 -0.178E+04   281.      0.144E-02  0.406    
    40 drnf21        -0.151E+04 -0.163E+04   120.      0.127E-02  0.152    
    41 drnf22        -0.148E+04 -0.119E+04  -290.      0.174E-02 -0.504    

 STATISTICS FOR DRAIN FLOW RESIDUALS :
 MAXIMUM WEIGHTED RESIDUAL  :  1.10     OBS#     25
 MINIMUM WEIGHTED RESIDUAL  : -2.32     OBS#     31
 AVERAGE WEIGHTED RESIDUAL  :-0.351    
 # RESIDUALS >= 0. :      9
 # RESIDUALS < 0.  :     14
 NUMBER OF RUNS:      9  IN     23 OBSERVATIONS

 SUM OF SQUARED WEIGHTED RESIDUALS (DRAIN FLOWS ONLY)   17.300    

 DATA FOR FLOWS REPRESENTED USING THE GENERAL-HEAD BOUNDARY PACKAGE

        OBSERVATION      MEAS.      CALC.                          WEIGHTED
   OBS#    NAME          FLOW       FLOW     RESIDUAL  WEIGHT**.5  RESIDUAL

     42 ghbf0          -162.      -50.1      -112.      0.431E-02 -0.482    
     43 ghbf1          -161.      -65.0      -95.8      0.423E-02 -0.405    
     44 ghbf2          -168.      -76.9      -91.3      0.437E-02 -0.399    
     45 ghbf3          -167.      -85.1      -81.9      0.438E-02 -0.359    
     46 ghbf4          -146.      -85.8      -60.7      0.249E-02 -0.151    
     47 ghbf5          -113.      -49.4      -63.3      0.476E-02 -0.301    
     48 ghbf6          -86.9       12.6      -99.5      0.475E-04 -0.473E-02
     49 ghbf7          -109.      -10.7      -98.6      0.468E-02 -0.462    
     50 ghbf8          -126.      -42.9      -82.7      0.409E-02 -0.338    
     51 ghbf9          -125.      -68.6      -56.5      0.410E-02 -0.232    
     52 ghbf10         -126.      -83.7      -42.8      0.400E-02 -0.171    
     53 ghbf11         -139.      -88.0      -51.3      0.263E-02 -0.135    
     54 ghbf12         -171.      -144.      -26.9      0.407E-02 -0.110    
     55 ghbf13         -218.      -225.       7.27      0.156E-03  0.113E-02
     56 ghbf14         -219.      -223.       4.46      0.389E-04  0.173E-03
     57 ghbf15         -141.      -101.      -40.2      0.245E-02 -0.985E-01
     58 ghbf16         -88.2      -2.06      -86.2      0.273E-02 -0.235    
     59 ghbf17         -120.      -25.6      -94.9      0.450E-02 -0.427    
     60 ghbf18         -147.      -59.4      -87.2      0.249E-02 -0.217    
     61 ghbf19         -144.      -51.2      -92.7      0.217E-02 -0.201    
     62 ghbf20         -144.      -38.2      -106.      0.222E-02 -0.236    

 STATISTICS FOR GENERAL-HEAD BOUNDARY FLOW RESIDUALS :
 MAXIMUM WEIGHTED RESIDUAL  : 0.113E-02 OBS#     55
 MINIMUM WEIGHTED RESIDUAL  :-0.482     OBS#     42
 AVERAGE WEIGHTED RESIDUAL  :-0.236    
 # RESIDUALS >= 0. :      2
 # RESIDUALS < 0.  :     19
 NUMBER OF RUNS:      3  IN     21 OBSERVATIONS

 SUM OF SQUARED WEIGHTED RESIDUALS
   (GENERAL-HEAD BOUNDARY FLOWS ONLY)   1.6288    

 DATA FOR FLOWS REPRESENTED USING THE STREAMFLOW ROUTING PACKAGE

        OBSERVATION      MEAS.      CALC.                          WEIGHTED
   OBS#    NAME          FLOW       FLOW     RESIDUAL  WEIGHT**.5  RESIDUAL

     63 strf0          -402.       265.      -667.      0.237E-02  -1.58    
     64 strf1          -385.       100.      -486.      0.306E-02  -1.49    
     65 strf2          -553.       788.     -0.134E+04  0.934E-04 -0.125    
     66 strf3          -467.       733.     -0.120E+04  0.174E-02  -2.09    
     67 strf4          -367.       99.8      -466.      0.177E-02 -0.827    
     68 strf5          -412.       275.      -688.      0.233E-02  -1.60    
     69 strf6          -400.       304.      -704.      0.254E-02  -1.79    
     70 strf7          -390.       175.      -565.      0.304E-02  -1.72    
     71 strf8          -393.       0.00      -393.      0.299E-02  -1.17    
     72 strf9          -376.       0.00      -376.      0.261E-02 -0.981    
     73 strf10         -397.       0.00      -397.      0.277E-02  -1.10    
     74 strf11         -394.       0.00      -394.      0.294E-02  -1.16    
     75 strf12         -415.       0.00      -415.      0.247E-02  -1.02    
     76 strf13         -393.       0.00      -393.      0.293E-02  -1.15    
     77 strf14         -361.       0.00      -361.      0.455E-04 -0.164E-01
     78 strf15         -446.     -0.110E+04   650.      0.324E-02   2.11    
     79 strf16         -381.      -650.       269.      0.289E-02  0.779    
     80 strf17         -409.      -688.       279.      0.200E-02  0.560    
     81 strf18         -390.      -306.      -83.8      0.303E-02 -0.254    
     82 strf19         -388.      -214.      -174.      0.308E-02 -0.536    
     83 strf20         -393.      -228.      -165.      0.293E-02 -0.483    
     84 strf21         -413.      -144.      -269.      0.233E-02 -0.627    
     85 strf22         -418.       14.7      -433.      0.275E-02  -1.19    
     86 strf23         -425.      -98.3      -326.      0.323E-02  -1.05    
     87 strf24         -432.      -914.       482.      0.353E-02   1.70    
     88 strf25         -382.      -472.       89.8      0.297E-02  0.266    
     89 strf26         -395.      -629.       234.      0.288E-02  0.673    
     90 strf27         -402.      -487.       84.7      0.237E-02  0.201    
     91 strf28         -417.      -280.      -137.      0.268E-02 -0.367    
     92 strf29         -436.       41.0      -477.      0.357E-02  -1.70    

 STATISTICS FOR STREAMFLOW ROUTING FLOW RESIDUALS :
 MAXIMUM WEIGHTED RESIDUAL  :  2.11     OBS#     78
 MINIMUM WEIGHTED RESIDUAL  : -2.09     OBS#     66
 AVERAGE WEIGHTED RESIDUAL  :-0.591    
 # RESIDUALS >= 0. :      7
 # RESIDUALS < 0.  :     23
 NUMBER OF RUNS:      5  IN     30 OBSERVATIONS

 SUM OF SQUARED WEIGHTED RESIDUALS (STREAMFLOW ROUTING FLOWS ONLY)   41.097    

 DATA FOR FLOW OBSERVATIONS AT BOUNDARIES REPRESENTED AS CONSTANT-HEAD

       OBSERVATION      MEAS.      CALC.                          WEIGHTED
  OBS#    NAME          FLOW       FLOW     RESIDUAL  WEIGHT**.5  RESIDUAL

    93 chdf0           8.72       747.      -738.      0.126E-02 -0.927    
    94 chdf1           21.0       899.      -878.      0.290E-02  -2.54    
    95 chdf2           41.2       989.      -948.      0.908E-03 -0.860    
    96 chdf3           38.6       878.      -840.      0.123E-02  -1.03    
    97 chdf4           45.5       535.      -489.      0.284E-04 -0.139E-01
    98 chdf5           33.3       977.      -944.      0.197E-02  -1.86    
    99 chdf6           26.4       689.      -662.      0.288E-02  -1.91    
   100 chdf7           1.28       636.      -634.      0.503E-03 -0.319    
   101 chdf8          -17.7       588.      -606.      0.180E-02  -1.09    
   102 chdf9          -27.8       496.      -524.      0.275E-02  -1.44    
   103 chdf10         -38.1       435.      -473.      0.309E-02  -1.46    
   104 chdf11         -42.7       433.      -476.      0.285E-02  -1.36    
   105 chdf12         -23.7       375.      -398.      0.237E-02 -0.946    
   106 chdf13         -10.8       565.      -576.      0.117E-02 -0.675    
   107 chdf14         -43.2       258.      -302.      0.279E-02 -0.841    
   108 chdf15         -54.5       271.      -325.      0.306E-04 -0.997E-02
   109 chdf16         -54.0       324.      -378.      0.173E-02 -0.653    
   110 chdf17         -44.5       338.      -383.      0.268E-02  -1.02    
   111 chdf18         -45.7       404.      -449.      0.257E-02  -1.15    
   112 chdf19         -11.7       395.      -407.      0.124E-02 -0.505    
   113 chdf20          3.22       551.      -548.      0.654E-03 -0.358    

 STATISTICS FOR CONSTANT-HEAD BOUNDARY FLOW RESIDUALS :
 MAXIMUM WEIGHTED RESIDUAL  :-0.997E-02 OBS#    108
 MINIMUM WEIGHTED RESIDUAL  : -2.54     OBS#     94
 AVERAGE WEIGHTED RESIDUAL  :-0.999    
 # RESIDUALS >= 0. :      0
 # RESIDUALS < 0.  :     21
 NUMBER OF RUNS  :    1  IN   21 OBSERVATIONS

 SUM OF SQUARED WEIGHTED RESIDUALS
   (CONSTANT-HEAD BOUNDARY FLOWS ONLY)   28.809    

 SUM OF SQUARED WEIGHTED RESIDUALS (ALL DEPENDENT VARIABLES)   91.331    

 STATISTICS FOR ALL RESIDUALS :
 AVERAGE WEIGHTED RESIDUAL  :-0.429E+00
 # RESIDUALS >= 0. :     31
 # RESIDUALS < 0.  :     82
 NUMBER OF RUNS  :   20  IN  113 OBSERVATIONS

 INTERPRETING THE CALCULATED RUNS STATISTIC VALUE OF     -6.06    
 NOTE: THE FOLLOWING APPLIES ONLY IF 
        # RESIDUALS >= 0 . IS GREATER THAN 10 AND 
        # RESIDUALS < 0.   IS GREATER THAN 10
 THE NEGATIVE VALUE MAY INDICATE TOO FEW RUNS:
    IF THE VALUE IS LESS THAN -1.28, THERE IS LESS THAN A 10 PERCENT
       CHANCE THE VALUES ARE RANDOM,
    IF THE VALUE IS LESS THAN -1.645, THERE IS LESS THAN A 5 PERCENT
       CHANCE THE VALUES ARE RANDOM,
    IF THE VALUE IS LESS THAN -1.96, THERE IS LESS THAN A 2.5 PERCENT
       CHANCE THE VALUES ARE RANDOM.


 ORDERED DEPENDENT-VARIABLE WEIGHTED RESIDUALS
 NUMBER OF RESIDUALS INCLUDED:       113
     -2.54      -2.32      -2.09      -1.91      -1.86      -1.79      -1.72    
     -1.70      -1.60      -1.58      -1.49      -1.46      -1.44      -1.42    
     -1.38      -1.36      -1.19      -1.17      -1.16      -1.15      -1.15    
     -1.14      -1.10      -1.09      -1.05      -1.03      -1.02      -1.02    
    -0.981     -0.952     -0.946     -0.927     -0.860     -0.841     -0.827    
    -0.781     -0.728     -0.675     -0.665     -0.653     -0.627     -0.611    
    -0.536     -0.532     -0.532     -0.505     -0.504     -0.483     -0.482    
    -0.462     -0.427     -0.405     -0.399     -0.379     -0.367     -0.359    
    -0.358     -0.338     -0.319     -0.301     -0.254     -0.236     -0.235    
    -0.232     -0.217     -0.201     -0.171     -0.165     -0.163     -0.151    
    -0.135     -0.125     -0.110     -0.985E-01 -0.910E-01 -0.164E-01 -0.139E-01
    -0.121E-01 -0.997E-02 -0.991E-02 -0.473E-02 -0.159E-02  0.173E-03  0.113E-02
     0.136E-02  0.446E-02  0.352E-01  0.427E-01  0.843E-01  0.979E-01  0.122    
     0.140      0.141      0.152      0.173      0.180      0.201      0.211    
     0.266      0.388      0.406      0.437      0.440      0.465      0.560    
     0.673      0.779      0.891       1.05       1.05       1.10       1.70    
      2.11    

 CORRELATION BETWEEN ORDERED WEIGHTED RESIDUALS AND NORMAL ORDER STATISTICS
 FOR OBSERVATIONS =    0.982    

 --------------------------------------------------------------------------
 COMMENTS ON THE INTERPRETATION OF THE CORRELATION BETWEEN
 WEIGHTED RESIDUALS AND NORMAL ORDER STATISTICS:

 The critical value for correlation at the 5% significance level is 0.978

 IF the reported CORRELATION is GREATER than the 5% critical value, ACCEPT
 the hypothesis that the weighted residuals are INDEPENDENT AND NORMALLY
 DISTRIBUTED at the 5% significance level.  The probability that this   
 conclusion is wrong is less than 5%.

 IF the reported correlation IS LESS THAN the 5% critical value REJECT the
 hypothesis that the weighted residuals are INDEPENDENT AND NORMALLY
 DISTRIBUTED at the 5% significance level.

 The analysis can also be done using the 10% significance level.
 The associated critical value is 0.981
 --------------------------------------------------------------------------

