MODPATH 5.0                                                                                                                                                                                                                                                     

 FILE UNIT NUMBER  10 HAS BEEN CONNECTED TO <A_MODPATH_particle set.mdf>
 FILE UNIT NUMBER  19 HAS BEEN CONNECTED TO <C:\pest\A\A_MODFLOW\A.dis>
 FILE UNIT NUMBER  71 WILL BE CONNECTED TO <A_MODPATH_particle set.loc>
 FILE UNIT NUMBER  75 WILL BE CONNECTED TO <A_MODPATH_particle set.ept>
 FILE UNIT NUMBER  76 WILL BE CONNECTED TO <A_MODPATH_particle set.pth>
 FILE UNIT NUMBER 730 HAS BEEN CONNECTED TO <C:\pest\A\A_MODFLOW\A.hed>
 FILE UNIT NUMBER  40 HAS BEEN CONNECTED TO <C:\pest\A\A_MODFLOW\A.ccf>
 

 DISCRETIZATION INPUT DATA READ FROM UNIT 19
 # MF2K DISCRETIZATION FILE
 #
 #
 # NLAY NROW NCOL NPER TIMEUNITS LENUNITS
   16 LAYERS       175 ROWS       135 COLUMNS
   1 STRESS PERIOD(S) IN SIMULATION
 MODEL TIME UNIT IS DAYS
 MODEL LENGTH UNIT IS METERS
  Confining bed flag for each layer:
   0   0   0   0   0   0   0   0   0   0   0   0   0   0   0   0
  IRCHTP=            1      IEVTTP=            1
 MAXIMUM NUMBER OF PARTICLES IS   500000
 9443241 ELEMENTS IN THE "A" ARRAY



                               DELR
 READING ON UNIT  19 WITH FORMAT: (FREE)              



                               DELC
 READING ON UNIT  19 WITH FORMAT: (FREE)              


 STRESS PERIOD     LENGTH       TIME STEPS     MULTIPLIER FOR DELT    SS FLAG
 ----------------------------------------------------------------------------
        1         1.000000          1                    1.000         SS

 STEADY-STATE SIMULATION



  
  135 COLUMNS  175 ROWS   16 LAYERS    0 CONFINING LAYERS
 IGRID (GRID TYPE CODE) IS 0
  
 LAYCON (LAYER TYPE CODES):
  1  1  1  1  1  1  1  1  1  1  1  1  1  1  1  1



           IBOUND                   FOR LAYER   1
 READING ON UNIT  10 WITH FORMAT: (FREE)              



           IBOUND                   FOR LAYER   2
 READING ON UNIT  10 WITH FORMAT: (FREE)              



           IBOUND                   FOR LAYER   3
 READING ON UNIT  10 WITH FORMAT: (FREE)              



           IBOUND                   FOR LAYER   4
 READING ON UNIT  10 WITH FORMAT: (FREE)              



           IBOUND                   FOR LAYER   5
 READING ON UNIT  10 WITH FORMAT: (FREE)              



           IBOUND                   FOR LAYER   6
 READING ON UNIT  10 WITH FORMAT: (FREE)              



           IBOUND                   FOR LAYER   7
 READING ON UNIT  10 WITH FORMAT: (FREE)              



           IBOUND                   FOR LAYER   8
 READING ON UNIT  10 WITH FORMAT: (FREE)              



           IBOUND                   FOR LAYER   9
 READING ON UNIT  10 WITH FORMAT: (FREE)              



           IBOUND                   FOR LAYER  10
 READING ON UNIT  10 WITH FORMAT: (FREE)              



           IBOUND                   FOR LAYER  11
 READING ON UNIT  10 WITH FORMAT: (FREE)              



           IBOUND                   FOR LAYER  12
 READING ON UNIT  10 WITH FORMAT: (FREE)              



           IBOUND                   FOR LAYER  13
 READING ON UNIT  10 WITH FORMAT: (FREE)              



           IBOUND                   FOR LAYER  14
 READING ON UNIT  10 WITH FORMAT: (FREE)              



           IBOUND                   FOR LAYER  15
 READING ON UNIT  10 WITH FORMAT: (FREE)              



           IBOUND                   FOR LAYER  16
 READING ON UNIT  10 WITH FORMAT: (FREE)              



           POROSITY                 FOR LAYER   1
 READING ON UNIT  10 WITH FORMAT: (FREE)              



           POROSITY                 FOR LAYER   2
 READING ON UNIT  10 WITH FORMAT: (FREE)              



           POROSITY                 FOR LAYER   3
 READING ON UNIT  10 WITH FORMAT: (FREE)              



           POROSITY                 FOR LAYER   4
 READING ON UNIT  10 WITH FORMAT: (FREE)              



           POROSITY                 FOR LAYER   5
 READING ON UNIT  10 WITH FORMAT: (FREE)              



           POROSITY                 FOR LAYER   6
 READING ON UNIT  10 WITH FORMAT: (FREE)              



           POROSITY                 FOR LAYER   7
 READING ON UNIT  10 WITH FORMAT: (FREE)              



           POROSITY                 FOR LAYER   8
 READING ON UNIT  10 WITH FORMAT: (FREE)              



           POROSITY                 FOR LAYER   9
 READING ON UNIT  10 WITH FORMAT: (FREE)              



           POROSITY                 FOR LAYER  10
 READING ON UNIT  10 WITH FORMAT: (FREE)              



           POROSITY                 FOR LAYER  11
 READING ON UNIT  10 WITH FORMAT: (FREE)              



           POROSITY                 FOR LAYER  12
 READING ON UNIT  10 WITH FORMAT: (FREE)              



           POROSITY                 FOR LAYER  13
 READING ON UNIT  10 WITH FORMAT: (FREE)              



           POROSITY                 FOR LAYER  14
 READING ON UNIT  10 WITH FORMAT: (FREE)              



           POROSITY                 FOR LAYER  15
 READING ON UNIT  10 WITH FORMAT: (FREE)              



           POROSITY                 FOR LAYER  16
 READING ON UNIT  10 WITH FORMAT: (FREE)              
 Single Precision Binary Files determined from Head file
  
  ---------------
 HEADS WERE READ FOR LAYER   1, STRESS PERIOD   1 TIME STEP    1
 HEADS WERE READ FOR LAYER   2, STRESS PERIOD   1 TIME STEP    1
 HEADS WERE READ FOR LAYER   3, STRESS PERIOD   1 TIME STEP    1
 HEADS WERE READ FOR LAYER   4, STRESS PERIOD   1 TIME STEP    1
 HEADS WERE READ FOR LAYER   5, STRESS PERIOD   1 TIME STEP    1
 HEADS WERE READ FOR LAYER   6, STRESS PERIOD   1 TIME STEP    1
 HEADS WERE READ FOR LAYER   7, STRESS PERIOD   1 TIME STEP    1
 HEADS WERE READ FOR LAYER   8, STRESS PERIOD   1 TIME STEP    1
 HEADS WERE READ FOR LAYER   9, STRESS PERIOD   1 TIME STEP    1
 HEADS WERE READ FOR LAYER  10, STRESS PERIOD   1 TIME STEP    1
 HEADS WERE READ FOR LAYER  11, STRESS PERIOD   1 TIME STEP    1
 HEADS WERE READ FOR LAYER  12, STRESS PERIOD   1 TIME STEP    1
 HEADS WERE READ FOR LAYER  13, STRESS PERIOD   1 TIME STEP    1
 HEADS WERE READ FOR LAYER  14, STRESS PERIOD   1 TIME STEP    1
 HEADS WERE READ FOR LAYER  15, STRESS PERIOD   1 TIME STEP    1
 HEADS WERE READ FOR LAYER  16, STRESS PERIOD   1 TIME STEP    1
 HEADS HAVE BEEN READ
 READING FLOW PACKAGE BUDGET DATA FOR STRESS PERIOD    1 , TIME STEP    1 ...
 Reading    CONSTANT HEAD for Period    1   Time Step    1
 Reading FLOW RIGHT FACE  for Period    1   Time Step    1
 Reading FLOW FRONT FACE  for Period    1   Time Step    1
 Reading FLOW LOWER FACE  for Period    1   Time Step    1
   FLOW RATES BETWEEN CELLS HAVE BEEN READ
 Reading           DRAINS for Period    1   Time Step    1
FACE 6 OF (J,I,K) =  102,  12,   8 IS NOT A BOUNDARY FACE.           DRAINS FLOW TREATED AS SOURCE/SINK TERM
FACE 6 OF (J,I,K) =  102,  12,   9 IS NOT A BOUNDARY FACE.           DRAINS FLOW TREATED AS SOURCE/SINK TERM
FACE 6 OF (J,I,K) =  102,  12,  10 IS NOT A BOUNDARY FACE.           DRAINS FLOW TREATED AS SOURCE/SINK TERM
FACE 6 OF (J,I,K) =  102,  12,  11 IS NOT A BOUNDARY FACE.           DRAINS FLOW TREATED AS SOURCE/SINK TERM
FACE 6 OF (J,I,K) =  102,  12,  12 IS NOT A BOUNDARY FACE.           DRAINS FLOW TREATED AS SOURCE/SINK TERM
FACE 6 OF (J,I,K) =  102,  12,  13 IS NOT A BOUNDARY FACE.           DRAINS FLOW TREATED AS SOURCE/SINK TERM
FACE 6 OF (J,I,K) =  102,  12,  14 IS NOT A BOUNDARY FACE.           DRAINS FLOW TREATED AS SOURCE/SINK TERM
FACE 6 OF (J,I,K) =  102,  12,  15 IS NOT A BOUNDARY FACE.           DRAINS FLOW TREATED AS SOURCE/SINK TERM
FACE 6 OF (J,I,K) =  102,  12,  16 IS NOT A BOUNDARY FACE.           DRAINS FLOW TREATED AS SOURCE/SINK TERM
FACE 6 OF (J,I,K) =  101,  12,   8 IS NOT A BOUNDARY FACE.           DRAINS FLOW TREATED AS SOURCE/SINK TERM
FACE 6 OF (J,I,K) =  101,  12,   9 IS NOT A BOUNDARY FACE.           DRAINS FLOW TREATED AS SOURCE/SINK TERM
FACE 6 OF (J,I,K) =  101,  12,  10 IS NOT A BOUNDARY FACE.           DRAINS FLOW TREATED AS SOURCE/SINK TERM
FACE 6 OF (J,I,K) =  101,  12,  11 IS NOT A BOUNDARY FACE.           DRAINS FLOW TREATED AS SOURCE/SINK TERM
FACE 6 OF (J,I,K) =  101,  12,  12 IS NOT A BOUNDARY FACE.           DRAINS FLOW TREATED AS SOURCE/SINK TERM
FACE 6 OF (J,I,K) =  101,  12,  13 IS NOT A BOUNDARY FACE.           DRAINS FLOW TREATED AS SOURCE/SINK TERM
FACE 6 OF (J,I,K) =  101,  12,  14 IS NOT A BOUNDARY FACE.           DRAINS FLOW TREATED AS SOURCE/SINK TERM
FACE 6 OF (J,I,K) =  101,  12,  15 IS NOT A BOUNDARY FACE.           DRAINS FLOW TREATED AS SOURCE/SINK TERM
FACE 6 OF (J,I,K) =  101,  12,  16 IS NOT A BOUNDARY FACE.           DRAINS FLOW TREATED AS SOURCE/SINK TERM
FACE 6 OF (J,I,K) =  101,  11,   8 IS NOT A BOUNDARY FACE.           DRAINS FLOW TREATED AS SOURCE/SINK TERM
FACE 6 OF (J,I,K) =  101,  11,   9 IS NOT A BOUNDARY FACE.           DRAINS FLOW TREATED AS SOURCE/SINK TERM
FACE 6 OF (J,I,K) =  101,  11,  10 IS NOT A BOUNDARY FACE.           DRAINS FLOW TREATED AS SOURCE/SINK TERM
FACE 6 OF (J,I,K) =  101,  11,  11 IS NOT A BOUNDARY FACE.           DRAINS FLOW TREATED AS SOURCE/SINK TERM
FACE 6 OF (J,I,K) =  101,  11,  12 IS NOT A BOUNDARY FACE.           DRAINS FLOW TREATED AS SOURCE/SINK TERM
FACE 6 OF (J,I,K) =  101,  11,  13 IS NOT A BOUNDARY FACE.           DRAINS FLOW TREATED AS SOURCE/SINK TERM
FACE 6 OF (J,I,K) =  101,  11,  14 IS NOT A BOUNDARY FACE.           DRAINS FLOW TREATED AS SOURCE/SINK TERM
FACE 6 OF (J,I,K) =  101,  11,  15 IS NOT A BOUNDARY FACE.           DRAINS FLOW TREATED AS SOURCE/SINK TERM
FACE 6 OF (J,I,K) =  101,  11,  16 IS NOT A BOUNDARY FACE.           DRAINS FLOW TREATED AS SOURCE/SINK TERM
FACE 6 OF (J,I,K) =  100,  11,   8 IS NOT A BOUNDARY FACE.           DRAINS FLOW TREATED AS SOURCE/SINK TERM
FACE 6 OF (J,I,K) =  100,  11,   9 IS NOT A BOUNDARY FACE.           DRAINS FLOW TREATED AS SOURCE/SINK TERM
FACE 6 OF (J,I,K) =  100,  11,  10 IS NOT A BOUNDARY FACE.           DRAINS FLOW TREATED AS SOURCE/SINK TERM
FACE 6 OF (J,I,K) =  100,  11,  11 IS NOT A BOUNDARY FACE.           DRAINS FLOW TREATED AS SOURCE/SINK TERM
FACE 6 OF (J,I,K) =  100,  11,  12 IS NOT A BOUNDARY FACE.           DRAINS FLOW TREATED AS SOURCE/SINK TERM
FACE 6 OF (J,I,K) =  100,  11,  13 IS NOT A BOUNDARY FACE.           DRAINS FLOW TREATED AS SOURCE/SINK TERM
FACE 6 OF (J,I,K) =  100,  11,  14 IS NOT A BOUNDARY FACE.           DRAINS FLOW TREATED AS SOURCE/SINK TERM
FACE 6 OF (J,I,K) =  100,  11,  15 IS NOT A BOUNDARY FACE.           DRAINS FLOW TREATED AS SOURCE/SINK TERM
FACE 6 OF (J,I,K) =  100,  11,  16 IS NOT A BOUNDARY FACE.           DRAINS FLOW TREATED AS SOURCE/SINK TERM
FACE 6 OF (J,I,K) =   99,  10,   8 IS NOT A BOUNDARY FACE.           DRAINS FLOW TREATED AS SOURCE/SINK TERM
FACE 6 OF (J,I,K) =   99,  10,   9 IS NOT A BOUNDARY FACE.           DRAINS FLOW TREATED AS SOURCE/SINK TERM
FACE 6 OF (J,I,K) =   99,  10,  10 IS NOT A BOUNDARY FACE.           DRAINS FLOW TREATED AS SOURCE/SINK TERM
FACE 6 OF (J,I,K) =   99,  10,  11 IS NOT A BOUNDARY FACE.           DRAINS FLOW TREATED AS SOURCE/SINK TERM
FACE 6 OF (J,I,K) =   99,  10,  12 IS NOT A BOUNDARY FACE.           DRAINS FLOW TREATED AS SOURCE/SINK TERM
FACE 6 OF (J,I,K) =   99,  10,  13 IS NOT A BOUNDARY FACE.           DRAINS FLOW TREATED AS SOURCE/SINK TERM
FACE 6 OF (J,I,K) =   99,  10,  14 IS NOT A BOUNDARY FACE.           DRAINS FLOW TREATED AS SOURCE/SINK TERM
FACE 6 OF (J,I,K) =   99,  10,  15 IS NOT A BOUNDARY FACE.           DRAINS FLOW TREATED AS SOURCE/SINK TERM
FACE 6 OF (J,I,K) =   99,  10,  16 IS NOT A BOUNDARY FACE.           DRAINS FLOW TREATED AS SOURCE/SINK TERM
FACE 6 OF (J,I,K) =   98,   9,   8 IS NOT A BOUNDARY FACE.           DRAINS FLOW TREATED AS SOURCE/SINK TERM
FACE 6 OF (J,I,K) =   98,   9,   9 IS NOT A BOUNDARY FACE.           DRAINS FLOW TREATED AS SOURCE/SINK TERM
FACE 6 OF (J,I,K) =   98,   9,  10 IS NOT A BOUNDARY FACE.           DRAINS FLOW TREATED AS SOURCE/SINK TERM
FACE 6 OF (J,I,K) =   98,   9,  11 IS NOT A BOUNDARY FACE.           DRAINS FLOW TREATED AS SOURCE/SINK TERM
FACE 6 OF (J,I,K) =   98,   9,  12 IS NOT A BOUNDARY FACE.           DRAINS FLOW TREATED AS SOURCE/SINK TERM
FACE 6 OF (J,I,K) =   98,   9,  13 IS NOT A BOUNDARY FACE.           DRAINS FLOW TREATED AS SOURCE/SINK TERM
FACE 6 OF (J,I,K) =   98,   9,  14 IS NOT A BOUNDARY FACE.           DRAINS FLOW TREATED AS SOURCE/SINK TERM
FACE 6 OF (J,I,K) =   98,   9,  15 IS NOT A BOUNDARY FACE.           DRAINS FLOW TREATED AS SOURCE/SINK TERM
FACE 6 OF (J,I,K) =   98,   9,  16 IS NOT A BOUNDARY FACE.           DRAINS FLOW TREATED AS SOURCE/SINK TERM
FACE 6 OF (J,I,K) =   97,   8,   9 IS NOT A BOUNDARY FACE.           DRAINS FLOW TREATED AS SOURCE/SINK TERM
FACE 6 OF (J,I,K) =   97,   8,  10 IS NOT A BOUNDARY FACE.           DRAINS FLOW TREATED AS SOURCE/SINK TERM
FACE 6 OF (J,I,K) =   97,   8,  11 IS NOT A BOUNDARY FACE.           DRAINS FLOW TREATED AS SOURCE/SINK TERM
FACE 6 OF (J,I,K) =   97,   8,  12 IS NOT A BOUNDARY FACE.           DRAINS FLOW TREATED AS SOURCE/SINK TERM
FACE 6 OF (J,I,K) =   97,   8,  13 IS NOT A BOUNDARY FACE.           DRAINS FLOW TREATED AS SOURCE/SINK TERM
FACE 6 OF (J,I,K) =   97,   8,  14 IS NOT A BOUNDARY FACE.           DRAINS FLOW TREATED AS SOURCE/SINK TERM
FACE 6 OF (J,I,K) =   97,   8,  15 IS NOT A BOUNDARY FACE.           DRAINS FLOW TREATED AS SOURCE/SINK TERM
FACE 6 OF (J,I,K) =   97,   8,  16 IS NOT A BOUNDARY FACE.           DRAINS FLOW TREATED AS SOURCE/SINK TERM
FACE 6 OF (J,I,K) =   96,   7,   9 IS NOT A BOUNDARY FACE.           DRAINS FLOW TREATED AS SOURCE/SINK TERM
FACE 6 OF (J,I,K) =   96,   7,  10 IS NOT A BOUNDARY FACE.           DRAINS FLOW TREATED AS SOURCE/SINK TERM
FACE 6 OF (J,I,K) =   96,   7,  11 IS NOT A BOUNDARY FACE.           DRAINS FLOW TREATED AS SOURCE/SINK TERM
FACE 6 OF (J,I,K) =   96,   7,  12 IS NOT A BOUNDARY FACE.           DRAINS FLOW TREATED AS SOURCE/SINK TERM
FACE 6 OF (J,I,K) =   96,   7,  13 IS NOT A BOUNDARY FACE.           DRAINS FLOW TREATED AS SOURCE/SINK TERM
FACE 6 OF (J,I,K) =   96,   7,  14 IS NOT A BOUNDARY FACE.           DRAINS FLOW TREATED AS SOURCE/SINK TERM
FACE 6 OF (J,I,K) =   96,   7,  15 IS NOT A BOUNDARY FACE.           DRAINS FLOW TREATED AS SOURCE/SINK TERM
FACE 6 OF (J,I,K) =   96,   7,  16 IS NOT A BOUNDARY FACE.           DRAINS FLOW TREATED AS SOURCE/SINK TERM
FACE 6 OF (J,I,K) =   95,   5,   9 IS NOT A BOUNDARY FACE.           DRAINS FLOW TREATED AS SOURCE/SINK TERM
FACE 6 OF (J,I,K) =   95,   5,  10 IS NOT A BOUNDARY FACE.           DRAINS FLOW TREATED AS SOURCE/SINK TERM
FACE 6 OF (J,I,K) =   95,   5,  11 IS NOT A BOUNDARY FACE.           DRAINS FLOW TREATED AS SOURCE/SINK TERM
FACE 6 OF (J,I,K) =   95,   5,  12 IS NOT A BOUNDARY FACE.           DRAINS FLOW TREATED AS SOURCE/SINK TERM
FACE 6 OF (J,I,K) =   95,   5,  13 IS NOT A BOUNDARY FACE.           DRAINS FLOW TREATED AS SOURCE/SINK TERM
FACE 6 OF (J,I,K) =   95,   5,  14 IS NOT A BOUNDARY FACE.           DRAINS FLOW TREATED AS SOURCE/SINK TERM
FACE 6 OF (J,I,K) =   95,   5,  15 IS NOT A BOUNDARY FACE.           DRAINS FLOW TREATED AS SOURCE/SINK TERM
FACE 6 OF (J,I,K) =   95,   5,  16 IS NOT A BOUNDARY FACE.           DRAINS FLOW TREATED AS SOURCE/SINK TERM
FACE 6 OF (J,I,K) =   94,   4,   9 IS NOT A BOUNDARY FACE.           DRAINS FLOW TREATED AS SOURCE/SINK TERM
FACE 6 OF (J,I,K) =   94,   4,  10 IS NOT A BOUNDARY FACE.           DRAINS FLOW TREATED AS SOURCE/SINK TERM
FACE 6 OF (J,I,K) =   94,   4,  11 IS NOT A BOUNDARY FACE.           DRAINS FLOW TREATED AS SOURCE/SINK TERM
FACE 6 OF (J,I,K) =   94,   4,  12 IS NOT A BOUNDARY FACE.           DRAINS FLOW TREATED AS SOURCE/SINK TERM
FACE 6 OF (J,I,K) =   94,   4,  13 IS NOT A BOUNDARY FACE.           DRAINS FLOW TREATED AS SOURCE/SINK TERM
FACE 6 OF (J,I,K) =   94,   4,  14 IS NOT A BOUNDARY FACE.           DRAINS FLOW TREATED AS SOURCE/SINK TERM
FACE 6 OF (J,I,K) =   94,   4,  15 IS NOT A BOUNDARY FACE.           DRAINS FLOW TREATED AS SOURCE/SINK TERM
FACE 6 OF (J,I,K) =   94,   4,  16 IS NOT A BOUNDARY FACE.           DRAINS FLOW TREATED AS SOURCE/SINK TERM
FACE 6 OF (J,I,K) =  114,  17,   9 IS NOT A BOUNDARY FACE.           DRAINS FLOW TREATED AS SOURCE/SINK TERM
FACE 6 OF (J,I,K) =  114,  17,  10 IS NOT A BOUNDARY FACE.           DRAINS FLOW TREATED AS SOURCE/SINK TERM
FACE 6 OF (J,I,K) =  114,  17,  11 IS NOT A BOUNDARY FACE.           DRAINS FLOW TREATED AS SOURCE/SINK TERM
FACE 6 OF (J,I,K) =  114,  17,  12 IS NOT A BOUNDARY FACE.           DRAINS FLOW TREATED AS SOURCE/SINK TERM
FACE 6 OF (J,I,K) =  114,  17,  13 IS NOT A BOUNDARY FACE.           DRAINS FLOW TREATED AS SOURCE/SINK TERM
FACE 6 OF (J,I,K) =  114,  17,  14 IS NOT A BOUNDARY FACE.           DRAINS FLOW TREATED AS SOURCE/SINK TERM
FACE 6 OF (J,I,K) =  114,  17,  15 IS NOT A BOUNDARY FACE.           DRAINS FLOW TREATED AS SOURCE/SINK TERM
FACE 6 OF (J,I,K) =  114,  17,  16 IS NOT A BOUNDARY FACE.           DRAINS FLOW TREATED AS SOURCE/SINK TERM
FACE 6 OF (J,I,K) =  113,  17,   9 IS NOT A BOUNDARY FACE.           DRAINS FLOW TREATED AS SOURCE/SINK TERM
FACE 6 OF (J,I,K) =  113,  17,  10 IS NOT A BOUNDARY FACE.           DRAINS FLOW TREATED AS SOURCE/SINK TERM
FACE 6 OF (J,I,K) =  113,  17,  11 IS NOT A BOUNDARY FACE.           DRAINS FLOW TREATED AS SOURCE/SINK TERM
FACE 6 OF (J,I,K) =  113,  17,  12 IS NOT A BOUNDARY FACE.           DRAINS FLOW TREATED AS SOURCE/SINK TERM
FACE 6 OF (J,I,K) =  113,  17,  13 IS NOT A BOUNDARY FACE.           DRAINS FLOW TREATED AS SOURCE/SINK TERM
FACE 6 OF (J,I,K) =  113,  17,  14 IS NOT A BOUNDARY FACE.           DRAINS FLOW TREATED AS SOURCE/SINK TERM
FACE 6 OF (J,I,K) =  113,  17,  15 IS NOT A BOUNDARY FACE.           DRAINS FLOW TREATED AS SOURCE/SINK TERM
FACE 6 OF (J,I,K) =  113,  17,  16 IS NOT A BOUNDARY FACE.           DRAINS FLOW TREATED AS SOURCE/SINK TERM
FACE 6 OF (J,I,K) =  112,  16,   9 IS NOT A BOUNDARY FACE.           DRAINS FLOW TREATED AS SOURCE/SINK TERM
FACE 6 OF (J,I,K) =  112,  16,  10 IS NOT A BOUNDARY FACE.           DRAINS FLOW TREATED AS SOURCE/SINK TERM
FACE 6 OF (J,I,K) =  112,  16,  11 IS NOT A BOUNDARY FACE.           DRAINS FLOW TREATED AS SOURCE/SINK TERM
FACE 6 OF (J,I,K) =  112,  16,  12 IS NOT A BOUNDARY FACE.           DRAINS FLOW TREATED AS SOURCE/SINK TERM
FACE 6 OF (J,I,K) =  112,  16,  13 IS NOT A BOUNDARY FACE.           DRAINS FLOW TREATED AS SOURCE/SINK TERM
FACE 6 OF (J,I,K) =  112,  16,  14 IS NOT A BOUNDARY FACE.           DRAINS FLOW TREATED AS SOURCE/SINK TERM
FACE 6 OF (J,I,K) =  112,  16,  15 IS NOT A BOUNDARY FACE.           DRAINS FLOW TREATED AS SOURCE/SINK TERM
FACE 6 OF (J,I,K) =  112,  16,  16 IS NOT A BOUNDARY FACE.           DRAINS FLOW TREATED AS SOURCE/SINK TERM
FACE 6 OF (J,I,K) =  111,  16,   8 IS NOT A BOUNDARY FACE.           DRAINS FLOW TREATED AS SOURCE/SINK TERM
FACE 6 OF (J,I,K) =  111,  16,   9 IS NOT A BOUNDARY FACE.           DRAINS FLOW TREATED AS SOURCE/SINK TERM
FACE 6 OF (J,I,K) =  111,  16,  10 IS NOT A BOUNDARY FACE.           DRAINS FLOW TREATED AS SOURCE/SINK TERM
FACE 6 OF (J,I,K) =  111,  16,  11 IS NOT A BOUNDARY FACE.           DRAINS FLOW TREATED AS SOURCE/SINK TERM
FACE 6 OF (J,I,K) =  111,  16,  12 IS NOT A BOUNDARY FACE.           DRAINS FLOW TREATED AS SOURCE/SINK TERM
FACE 6 OF (J,I,K) =  111,  16,  13 IS NOT A BOUNDARY FACE.           DRAINS FLOW TREATED AS SOURCE/SINK TERM
FACE 6 OF (J,I,K) =  111,  16,  14 IS NOT A BOUNDARY FACE.           DRAINS FLOW TREATED AS SOURCE/SINK TERM
FACE 6 OF (J,I,K) =  111,  16,  15 IS NOT A BOUNDARY FACE.           DRAINS FLOW TREATED AS SOURCE/SINK TERM
FACE 6 OF (J,I,K) =  111,  16,  16 IS NOT A BOUNDARY FACE.           DRAINS FLOW TREATED AS SOURCE/SINK TERM
FACE 6 OF (J,I,K) =  110,  16,   8 IS NOT A BOUNDARY FACE.           DRAINS FLOW TREATED AS SOURCE/SINK TERM
FACE 6 OF (J,I,K) =  110,  16,   9 IS NOT A BOUNDARY FACE.           DRAINS FLOW TREATED AS SOURCE/SINK TERM
FACE 6 OF (J,I,K) =  110,  16,  10 IS NOT A BOUNDARY FACE.           DRAINS FLOW TREATED AS SOURCE/SINK TERM
FACE 6 OF (J,I,K) =  110,  16,  11 IS NOT A BOUNDARY FACE.           DRAINS FLOW TREATED AS SOURCE/SINK TERM
FACE 6 OF (J,I,K) =  110,  16,  12 IS NOT A BOUNDARY FACE.           DRAINS FLOW TREATED AS SOURCE/SINK TERM
FACE 6 OF (J,I,K) =  110,  16,  13 IS NOT A BOUNDARY FACE.           DRAINS FLOW TREATED AS SOURCE/SINK TERM
FACE 6 OF (J,I,K) =  110,  16,  14 IS NOT A BOUNDARY FACE.           DRAINS FLOW TREATED AS SOURCE/SINK TERM
FACE 6 OF (J,I,K) =  110,  16,  15 IS NOT A BOUNDARY FACE.           DRAINS FLOW TREATED AS SOURCE/SINK TERM
FACE 6 OF (J,I,K) =  110,  16,  16 IS NOT A BOUNDARY FACE.           DRAINS FLOW TREATED AS SOURCE/SINK TERM
FACE 6 OF (J,I,K) =  110,  15,   8 IS NOT A BOUNDARY FACE.           DRAINS FLOW TREATED AS SOURCE/SINK TERM
FACE 6 OF (J,I,K) =  110,  15,   9 IS NOT A BOUNDARY FACE.           DRAINS FLOW TREATED AS SOURCE/SINK TERM
FACE 6 OF (J,I,K) =  110,  15,  10 IS NOT A BOUNDARY FACE.           DRAINS FLOW TREATED AS SOURCE/SINK TERM
FACE 6 OF (J,I,K) =  110,  15,  11 IS NOT A BOUNDARY FACE.           DRAINS FLOW TREATED AS SOURCE/SINK TERM
FACE 6 OF (J,I,K) =  110,  15,  12 IS NOT A BOUNDARY FACE.           DRAINS FLOW TREATED AS SOURCE/SINK TERM
FACE 6 OF (J,I,K) =  110,  15,  13 IS NOT A BOUNDARY FACE.           DRAINS FLOW TREATED AS SOURCE/SINK TERM
FACE 6 OF (J,I,K) =  110,  15,  14 IS NOT A BOUNDARY FACE.           DRAINS FLOW TREATED AS SOURCE/SINK TERM
FACE 6 OF (J,I,K) =  110,  15,  15 IS NOT A BOUNDARY FACE.           DRAINS FLOW TREATED AS SOURCE/SINK TERM
FACE 6 OF (J,I,K) =  110,  15,  16 IS NOT A BOUNDARY FACE.           DRAINS FLOW TREATED AS SOURCE/SINK TERM
FACE 6 OF (J,I,K) =  109,  15,   8 IS NOT A BOUNDARY FACE.           DRAINS FLOW TREATED AS SOURCE/SINK TERM
FACE 6 OF (J,I,K) =  109,  15,   9 IS NOT A BOUNDARY FACE.           DRAINS FLOW TREATED AS SOURCE/SINK TERM
FACE 6 OF (J,I,K) =  109,  15,  10 IS NOT A BOUNDARY FACE.           DRAINS FLOW TREATED AS SOURCE/SINK TERM
FACE 6 OF (J,I,K) =  109,  15,  11 IS NOT A BOUNDARY FACE.           DRAINS FLOW TREATED AS SOURCE/SINK TERM
FACE 6 OF (J,I,K) =  109,  15,  12 IS NOT A BOUNDARY FACE.           DRAINS FLOW TREATED AS SOURCE/SINK TERM
FACE 6 OF (J,I,K) =  109,  15,  13 IS NOT A BOUNDARY FACE.           DRAINS FLOW TREATED AS SOURCE/SINK TERM
FACE 6 OF (J,I,K) =  109,  15,  14 IS NOT A BOUNDARY FACE.           DRAINS FLOW TREATED AS SOURCE/SINK TERM
FACE 6 OF (J,I,K) =  109,  15,  15 IS NOT A BOUNDARY FACE.           DRAINS FLOW TREATED AS SOURCE/SINK TERM
FACE 6 OF (J,I,K) =  109,  15,  16 IS NOT A BOUNDARY FACE.           DRAINS FLOW TREATED AS SOURCE/SINK TERM
FACE 6 OF (J,I,K) =  108,  15,   8 IS NOT A BOUNDARY FACE.           DRAINS FLOW TREATED AS SOURCE/SINK TERM
FACE 6 OF (J,I,K) =  108,  15,   9 IS NOT A BOUNDARY FACE.           DRAINS FLOW TREATED AS SOURCE/SINK TERM
FACE 6 OF (J,I,K) =  108,  15,  10 IS NOT A BOUNDARY FACE.           DRAINS FLOW TREATED AS SOURCE/SINK TERM
FACE 6 OF (J,I,K) =  108,  15,  11 IS NOT A BOUNDARY FACE.           DRAINS FLOW TREATED AS SOURCE/SINK TERM
FACE 6 OF (J,I,K) =  108,  15,  12 IS NOT A BOUNDARY FACE.           DRAINS FLOW TREATED AS SOURCE/SINK TERM
FACE 6 OF (J,I,K) =  108,  15,  13 IS NOT A BOUNDARY FACE.           DRAINS FLOW TREATED AS SOURCE/SINK TERM
FACE 6 OF (J,I,K) =  108,  15,  14 IS NOT A BOUNDARY FACE.           DRAINS FLOW TREATED AS SOURCE/SINK TERM
FACE 6 OF (J,I,K) =  108,  15,  15 IS NOT A BOUNDARY FACE.           DRAINS FLOW TREATED AS SOURCE/SINK TERM
FACE 6 OF (J,I,K) =  108,  15,  16 IS NOT A BOUNDARY FACE.           DRAINS FLOW TREATED AS SOURCE/SINK TERM
FACE 6 OF (J,I,K) =  108,  14,   8 IS NOT A BOUNDARY FACE.           DRAINS FLOW TREATED AS SOURCE/SINK TERM
FACE 6 OF (J,I,K) =  108,  14,   9 IS NOT A BOUNDARY FACE.           DRAINS FLOW TREATED AS SOURCE/SINK TERM
FACE 6 OF (J,I,K) =  108,  14,  10 IS NOT A BOUNDARY FACE.           DRAINS FLOW TREATED AS SOURCE/SINK TERM
FACE 6 OF (J,I,K) =  108,  14,  11 IS NOT A BOUNDARY FACE.           DRAINS FLOW TREATED AS SOURCE/SINK TERM
FACE 6 OF (J,I,K) =  108,  14,  12 IS NOT A BOUNDARY FACE.           DRAINS FLOW TREATED AS SOURCE/SINK TERM
FACE 6 OF (J,I,K) =  108,  14,  13 IS NOT A BOUNDARY FACE.           DRAINS FLOW TREATED AS SOURCE/SINK TERM
FACE 6 OF (J,I,K) =  108,  14,  14 IS NOT A BOUNDARY FACE.           DRAINS FLOW TREATED AS SOURCE/SINK TERM
FACE 6 OF (J,I,K) =  108,  14,  15 IS NOT A BOUNDARY FACE.           DRAINS FLOW TREATED AS SOURCE/SINK TERM
FACE 6 OF (J,I,K) =  108,  14,  16 IS NOT A BOUNDARY FACE.           DRAINS FLOW TREATED AS SOURCE/SINK TERM
FACE 6 OF (J,I,K) =  107,  14,   8 IS NOT A BOUNDARY FACE.           DRAINS FLOW TREATED AS SOURCE/SINK TERM
FACE 6 OF (J,I,K) =  107,  14,   9 IS NOT A BOUNDARY FACE.           DRAINS FLOW TREATED AS SOURCE/SINK TERM
FACE 6 OF (J,I,K) =  107,  14,  10 IS NOT A BOUNDARY FACE.           DRAINS FLOW TREATED AS SOURCE/SINK TERM
FACE 6 OF (J,I,K) =  107,  14,  11 IS NOT A BOUNDARY FACE.           DRAINS FLOW TREATED AS SOURCE/SINK TERM
FACE 6 OF (J,I,K) =  107,  14,  12 IS NOT A BOUNDARY FACE.           DRAINS FLOW TREATED AS SOURCE/SINK TERM
FACE 6 OF (J,I,K) =  107,  14,  13 IS NOT A BOUNDARY FACE.           DRAINS FLOW TREATED AS SOURCE/SINK TERM
FACE 6 OF (J,I,K) =  107,  14,  14 IS NOT A BOUNDARY FACE.           DRAINS FLOW TREATED AS SOURCE/SINK TERM
FACE 6 OF (J,I,K) =  107,  14,  15 IS NOT A BOUNDARY FACE.           DRAINS FLOW TREATED AS SOURCE/SINK TERM
FACE 6 OF (J,I,K) =  107,  14,  16 IS NOT A BOUNDARY FACE.           DRAINS FLOW TREATED AS SOURCE/SINK TERM
FACE 6 OF (J,I,K) =  106,  14,   8 IS NOT A BOUNDARY FACE.           DRAINS FLOW TREATED AS SOURCE/SINK TERM
FACE 6 OF (J,I,K) =  106,  14,   9 IS NOT A BOUNDARY FACE.           DRAINS FLOW TREATED AS SOURCE/SINK TERM
FACE 6 OF (J,I,K) =  106,  14,  10 IS NOT A BOUNDARY FACE.           DRAINS FLOW TREATED AS SOURCE/SINK TERM
FACE 6 OF (J,I,K) =  106,  14,  11 IS NOT A BOUNDARY FACE.           DRAINS FLOW TREATED AS SOURCE/SINK TERM
FACE 6 OF (J,I,K) =  106,  14,  12 IS NOT A BOUNDARY FACE.           DRAINS FLOW TREATED AS SOURCE/SINK TERM
FACE 6 OF (J,I,K) =  106,  14,  13 IS NOT A BOUNDARY FACE.           DRAINS FLOW TREATED AS SOURCE/SINK TERM
FACE 6 OF (J,I,K) =  106,  14,  14 IS NOT A BOUNDARY FACE.           DRAINS FLOW TREATED AS SOURCE/SINK TERM
FACE 6 OF (J,I,K) =  106,  14,  15 IS NOT A BOUNDARY FACE.           DRAINS FLOW TREATED AS SOURCE/SINK TERM
FACE 6 OF (J,I,K) =  106,  14,  16 IS NOT A BOUNDARY FACE.           DRAINS FLOW TREATED AS SOURCE/SINK TERM
FACE 6 OF (J,I,K) =  105,  14,   8 IS NOT A BOUNDARY FACE.           DRAINS FLOW TREATED AS SOURCE/SINK TERM
FACE 6 OF (J,I,K) =  105,  14,   9 IS NOT A BOUNDARY FACE.           DRAINS FLOW TREATED AS SOURCE/SINK TERM
FACE 6 OF (J,I,K) =  105,  14,  10 IS NOT A BOUNDARY FACE.           DRAINS FLOW TREATED AS SOURCE/SINK TERM
FACE 6 OF (J,I,K) =  105,  14,  11 IS NOT A BOUNDARY FACE.           DRAINS FLOW TREATED AS SOURCE/SINK TERM
FACE 6 OF (J,I,K) =  105,  14,  12 IS NOT A BOUNDARY FACE.           DRAINS FLOW TREATED AS SOURCE/SINK TERM
FACE 6 OF (J,I,K) =  105,  14,  13 IS NOT A BOUNDARY FACE.           DRAINS FLOW TREATED AS SOURCE/SINK TERM
FACE 6 OF (J,I,K) =  105,  14,  14 IS NOT A BOUNDARY FACE.           DRAINS FLOW TREATED AS SOURCE/SINK TERM
FACE 6 OF (J,I,K) =  105,  14,  15 IS NOT A BOUNDARY FACE.           DRAINS FLOW TREATED AS SOURCE/SINK TERM
FACE 6 OF (J,I,K) =  105,  14,  16 IS NOT A BOUNDARY FACE.           DRAINS FLOW TREATED AS SOURCE/SINK TERM
FACE 6 OF (J,I,K) =  105,  13,   8 IS NOT A BOUNDARY FACE.           DRAINS FLOW TREATED AS SOURCE/SINK TERM
FACE 6 OF (J,I,K) =  105,  13,   9 IS NOT A BOUNDARY FACE.           DRAINS FLOW TREATED AS SOURCE/SINK TERM
FACE 6 OF (J,I,K) =  105,  13,  10 IS NOT A BOUNDARY FACE.           DRAINS FLOW TREATED AS SOURCE/SINK TERM
FACE 6 OF (J,I,K) =  105,  13,  11 IS NOT A BOUNDARY FACE.           DRAINS FLOW TREATED AS SOURCE/SINK TERM
FACE 6 OF (J,I,K) =  105,  13,  12 IS NOT A BOUNDARY FACE.           DRAINS FLOW TREATED AS SOURCE/SINK TERM
FACE 6 OF (J,I,K) =  105,  13,  13 IS NOT A BOUNDARY FACE.           DRAINS FLOW TREATED AS SOURCE/SINK TERM
FACE 6 OF (J,I,K) =  105,  13,  14 IS NOT A BOUNDARY FACE.           DRAINS FLOW TREATED AS SOURCE/SINK TERM
FACE 6 OF (J,I,K) =  105,  13,  15 IS NOT A BOUNDARY FACE.           DRAINS FLOW TREATED AS SOURCE/SINK TERM
FACE 6 OF (J,I,K) =  105,  13,  16 IS NOT A BOUNDARY FACE.           DRAINS FLOW TREATED AS SOURCE/SINK TERM
FACE 6 OF (J,I,K) =  104,  13,   8 IS NOT A BOUNDARY FACE.           DRAINS FLOW TREATED AS SOURCE/SINK TERM
FACE 6 OF (J,I,K) =  104,  13,   9 IS NOT A BOUNDARY FACE.           DRAINS FLOW TREATED AS SOURCE/SINK TERM
FACE 6 OF (J,I,K) =  104,  13,  10 IS NOT A BOUNDARY FACE.           DRAINS FLOW TREATED AS SOURCE/SINK TERM
FACE 6 OF (J,I,K) =  104,  13,  11 IS NOT A BOUNDARY FACE.           DRAINS FLOW TREATED AS SOURCE/SINK TERM
FACE 6 OF (J,I,K) =  104,  13,  12 IS NOT A BOUNDARY FACE.           DRAINS FLOW TREATED AS SOURCE/SINK TERM
FACE 6 OF (J,I,K) =  104,  13,  13 IS NOT A BOUNDARY FACE.           DRAINS FLOW TREATED AS SOURCE/SINK TERM
FACE 6 OF (J,I,K) =  104,  13,  14 IS NOT A BOUNDARY FACE.           DRAINS FLOW TREATED AS SOURCE/SINK TERM
FACE 6 OF (J,I,K) =  104,  13,  15 IS NOT A BOUNDARY FACE.           DRAINS FLOW TREATED AS SOURCE/SINK TERM
FACE 6 OF (J,I,K) =  104,  13,  16 IS NOT A BOUNDARY FACE.           DRAINS FLOW TREATED AS SOURCE/SINK TERM
FACE 6 OF (J,I,K) =  103,  13,   8 IS NOT A BOUNDARY FACE.           DRAINS FLOW TREATED AS SOURCE/SINK TERM
FACE 6 OF (J,I,K) =  103,  13,   9 IS NOT A BOUNDARY FACE.           DRAINS FLOW TREATED AS SOURCE/SINK TERM
FACE 6 OF (J,I,K) =  103,  13,  10 IS NOT A BOUNDARY FACE.           DRAINS FLOW TREATED AS SOURCE/SINK TERM
FACE 6 OF (J,I,K) =  103,  13,  11 IS NOT A BOUNDARY FACE.           DRAINS FLOW TREATED AS SOURCE/SINK TERM
FACE 6 OF (J,I,K) =  103,  13,  12 IS NOT A BOUNDARY FACE.           DRAINS FLOW TREATED AS SOURCE/SINK TERM
FACE 6 OF (J,I,K) =  103,  13,  13 IS NOT A BOUNDARY FACE.           DRAINS FLOW TREATED AS SOURCE/SINK TERM
FACE 6 OF (J,I,K) =  103,  13,  14 IS NOT A BOUNDARY FACE.           DRAINS FLOW TREATED AS SOURCE/SINK TERM
FACE 6 OF (J,I,K) =  103,  13,  15 IS NOT A BOUNDARY FACE.           DRAINS FLOW TREATED AS SOURCE/SINK TERM
FACE 6 OF (J,I,K) =  103,  13,  16 IS NOT A BOUNDARY FACE.           DRAINS FLOW TREATED AS SOURCE/SINK TERM
FACE 6 OF (J,I,K) =  102,  13,   8 IS NOT A BOUNDARY FACE.           DRAINS FLOW TREATED AS SOURCE/SINK TERM
FACE 6 OF (J,I,K) =  102,  13,   9 IS NOT A BOUNDARY FACE.           DRAINS FLOW TREATED AS SOURCE/SINK TERM
FACE 6 OF (J,I,K) =  102,  13,  10 IS NOT A BOUNDARY FACE.           DRAINS FLOW TREATED AS SOURCE/SINK TERM
FACE 6 OF (J,I,K) =  102,  13,  11 IS NOT A BOUNDARY FACE.           DRAINS FLOW TREATED AS SOURCE/SINK TERM
FACE 6 OF (J,I,K) =  102,  13,  12 IS NOT A BOUNDARY FACE.           DRAINS FLOW TREATED AS SOURCE/SINK TERM
FACE 6 OF (J,I,K) =  102,  13,  13 IS NOT A BOUNDARY FACE.           DRAINS FLOW TREATED AS SOURCE/SINK TERM
FACE 6 OF (J,I,K) =  102,  13,  14 IS NOT A BOUNDARY FACE.           DRAINS FLOW TREATED AS SOURCE/SINK TERM
FACE 6 OF (J,I,K) =  102,  13,  15 IS NOT A BOUNDARY FACE.           DRAINS FLOW TREATED AS SOURCE/SINK TERM
FACE 6 OF (J,I,K) =  102,  13,  16 IS NOT A BOUNDARY FACE.           DRAINS FLOW TREATED AS SOURCE/SINK TERM
FACE 6 OF (J,I,K) =  102,  12,   8 IS NOT A BOUNDARY FACE.           DRAINS FLOW TREATED AS SOURCE/SINK TERM
FACE 6 OF (J,I,K) =  102,  12,   9 IS NOT A BOUNDARY FACE.           DRAINS FLOW TREATED AS SOURCE/SINK TERM
FACE 6 OF (J,I,K) =  102,  12,  10 IS NOT A BOUNDARY FACE.           DRAINS FLOW TREATED AS SOURCE/SINK TERM
FACE 6 OF (J,I,K) =  102,  12,  11 IS NOT A BOUNDARY FACE.           DRAINS FLOW TREATED AS SOURCE/SINK TERM
FACE 6 OF (J,I,K) =  102,  12,  12 IS NOT A BOUNDARY FACE.           DRAINS FLOW TREATED AS SOURCE/SINK TERM
FACE 6 OF (J,I,K) =  102,  12,  13 IS NOT A BOUNDARY FACE.           DRAINS FLOW TREATED AS SOURCE/SINK TERM
FACE 6 OF (J,I,K) =  102,  12,  14 IS NOT A BOUNDARY FACE.           DRAINS FLOW TREATED AS SOURCE/SINK TERM
FACE 6 OF (J,I,K) =  102,  12,  15 IS NOT A BOUNDARY FACE.           DRAINS FLOW TREATED AS SOURCE/SINK TERM
FACE 6 OF (J,I,K) =  102,  12,  16 IS NOT A BOUNDARY FACE.           DRAINS FLOW TREATED AS SOURCE/SINK TERM
FACE 6 OF (J,I,K) =  119,  24,   9 IS NOT A BOUNDARY FACE.           DRAINS FLOW TREATED AS SOURCE/SINK TERM
FACE 6 OF (J,I,K) =  119,  24,  10 IS NOT A BOUNDARY FACE.           DRAINS FLOW TREATED AS SOURCE/SINK TERM
FACE 6 OF (J,I,K) =  119,  24,  11 IS NOT A BOUNDARY FACE.           DRAINS FLOW TREATED AS SOURCE/SINK TERM
FACE 6 OF (J,I,K) =  119,  24,  12 IS NOT A BOUNDARY FACE.           DRAINS FLOW TREATED AS SOURCE/SINK TERM
FACE 6 OF (J,I,K) =  119,  24,  13 IS NOT A BOUNDARY FACE.           DRAINS FLOW TREATED AS SOURCE/SINK TERM
FACE 6 OF (J,I,K) =  119,  24,  14 IS NOT A BOUNDARY FACE.           DRAINS FLOW TREATED AS SOURCE/SINK TERM
FACE 6 OF (J,I,K) =  119,  24,  15 IS NOT A BOUNDARY FACE.           DRAINS FLOW TREATED AS SOURCE/SINK TERM
FACE 6 OF (J,I,K) =  119,  24,  16 IS NOT A BOUNDARY FACE.           DRAINS FLOW TREATED AS SOURCE/SINK TERM
FACE 6 OF (J,I,K) =  118,  23,   8 IS NOT A BOUNDARY FACE.           DRAINS FLOW TREATED AS SOURCE/SINK TERM
FACE 6 OF (J,I,K) =  118,  23,   9 IS NOT A BOUNDARY FACE.           DRAINS FLOW TREATED AS SOURCE/SINK TERM
FACE 6 OF (J,I,K) =  118,  23,  10 IS NOT A BOUNDARY FACE.           DRAINS FLOW TREATED AS SOURCE/SINK TERM
FACE 6 OF (J,I,K) =  118,  23,  11 IS NOT A BOUNDARY FACE.           DRAINS FLOW TREATED AS SOURCE/SINK TERM
FACE 6 OF (J,I,K) =  118,  23,  12 IS NOT A BOUNDARY FACE.           DRAINS FLOW TREATED AS SOURCE/SINK TERM
FACE 6 OF (J,I,K) =  118,  23,  13 IS NOT A BOUNDARY FACE.           DRAINS FLOW TREATED AS SOURCE/SINK TERM
FACE 6 OF (J,I,K) =  118,  23,  14 IS NOT A BOUNDARY FACE.           DRAINS FLOW TREATED AS SOURCE/SINK TERM
FACE 6 OF (J,I,K) =  118,  23,  15 IS NOT A BOUNDARY FACE.           DRAINS FLOW TREATED AS SOURCE/SINK TERM
FACE 6 OF (J,I,K) =  118,  23,  16 IS NOT A BOUNDARY FACE.           DRAINS FLOW TREATED AS SOURCE/SINK TERM
FACE 6 OF (J,I,K) =  118,  22,   8 IS NOT A BOUNDARY FACE.           DRAINS FLOW TREATED AS SOURCE/SINK TERM
FACE 6 OF (J,I,K) =  118,  22,   9 IS NOT A BOUNDARY FACE.           DRAINS FLOW TREATED AS SOURCE/SINK TERM
FACE 6 OF (J,I,K) =  118,  22,  10 IS NOT A BOUNDARY FACE.           DRAINS FLOW TREATED AS SOURCE/SINK TERM
FACE 6 OF (J,I,K) =  118,  22,  11 IS NOT A BOUNDARY FACE.           DRAINS FLOW TREATED AS SOURCE/SINK TERM
FACE 6 OF (J,I,K) =  118,  22,  12 IS NOT A BOUNDARY FACE.           DRAINS FLOW TREATED AS SOURCE/SINK TERM
FACE 6 OF (J,I,K) =  118,  22,  13 IS NOT A BOUNDARY FACE.           DRAINS FLOW TREATED AS SOURCE/SINK TERM
FACE 6 OF (J,I,K) =  118,  22,  14 IS NOT A BOUNDARY FACE.           DRAINS FLOW TREATED AS SOURCE/SINK TERM
FACE 6 OF (J,I,K) =  118,  22,  15 IS NOT A BOUNDARY FACE.           DRAINS FLOW TREATED AS SOURCE/SINK TERM
FACE 6 OF (J,I,K) =  118,  22,  16 IS NOT A BOUNDARY FACE.           DRAINS FLOW TREATED AS SOURCE/SINK TERM
FACE 6 OF (J,I,K) =  117,  22,   8 IS NOT A BOUNDARY FACE.           DRAINS FLOW TREATED AS SOURCE/SINK TERM
FACE 6 OF (J,I,K) =  117,  22,   9 IS NOT A BOUNDARY FACE.           DRAINS FLOW TREATED AS SOURCE/SINK TERM
FACE 6 OF (J,I,K) =  117,  22,  10 IS NOT A BOUNDARY FACE.           DRAINS FLOW TREATED AS SOURCE/SINK TERM
FACE 6 OF (J,I,K) =  117,  22,  11 IS NOT A BOUNDARY FACE.           DRAINS FLOW TREATED AS SOURCE/SINK TERM
FACE 6 OF (J,I,K) =  117,  22,  12 IS NOT A BOUNDARY FACE.           DRAINS FLOW TREATED AS SOURCE/SINK TERM
FACE 6 OF (J,I,K) =  117,  22,  13 IS NOT A BOUNDARY FACE.           DRAINS FLOW TREATED AS SOURCE/SINK TERM
FACE 6 OF (J,I,K) =  117,  22,  14 IS NOT A BOUNDARY FACE.           DRAINS FLOW TREATED AS SOURCE/SINK TERM
FACE 6 OF (J,I,K) =  117,  22,  15 IS NOT A BOUNDARY FACE.           DRAINS FLOW TREATED AS SOURCE/SINK TERM
FACE 6 OF (J,I,K) =  117,  22,  16 IS NOT A BOUNDARY FACE.           DRAINS FLOW TREATED AS SOURCE/SINK TERM
FACE 6 OF (J,I,K) =  117,  21,   9 IS NOT A BOUNDARY FACE.           DRAINS FLOW TREATED AS SOURCE/SINK TERM
FACE 6 OF (J,I,K) =  117,  21,  10 IS NOT A BOUNDARY FACE.           DRAINS FLOW TREATED AS SOURCE/SINK TERM
FACE 6 OF (J,I,K) =  117,  21,  11 IS NOT A BOUNDARY FACE.           DRAINS FLOW TREATED AS SOURCE/SINK TERM
FACE 6 OF (J,I,K) =  117,  21,  12 IS NOT A BOUNDARY FACE.           DRAINS FLOW TREATED AS SOURCE/SINK TERM
FACE 6 OF (J,I,K) =  117,  21,  13 IS NOT A BOUNDARY FACE.           DRAINS FLOW TREATED AS SOURCE/SINK TERM
FACE 6 OF (J,I,K) =  117,  21,  14 IS NOT A BOUNDARY FACE.           DRAINS FLOW TREATED AS SOURCE/SINK TERM
FACE 6 OF (J,I,K) =  117,  21,  15 IS NOT A BOUNDARY FACE.           DRAINS FLOW TREATED AS SOURCE/SINK TERM
FACE 6 OF (J,I,K) =  117,  21,  16 IS NOT A BOUNDARY FACE.           DRAINS FLOW TREATED AS SOURCE/SINK TERM
FACE 6 OF (J,I,K) =  117,  20,   9 IS NOT A BOUNDARY FACE.           DRAINS FLOW TREATED AS SOURCE/SINK TERM
FACE 6 OF (J,I,K) =  117,  20,  10 IS NOT A BOUNDARY FACE.           DRAINS FLOW TREATED AS SOURCE/SINK TERM
FACE 6 OF (J,I,K) =  117,  20,  11 IS NOT A BOUNDARY FACE.           DRAINS FLOW TREATED AS SOURCE/SINK TERM
FACE 6 OF (J,I,K) =  117,  20,  12 IS NOT A BOUNDARY FACE.           DRAINS FLOW TREATED AS SOURCE/SINK TERM
FACE 6 OF (J,I,K) =  117,  20,  13 IS NOT A BOUNDARY FACE.           DRAINS FLOW TREATED AS SOURCE/SINK TERM
FACE 6 OF (J,I,K) =  117,  20,  14 IS NOT A BOUNDARY FACE.           DRAINS FLOW TREATED AS SOURCE/SINK TERM
FACE 6 OF (J,I,K) =  117,  20,  15 IS NOT A BOUNDARY FACE.           DRAINS FLOW TREATED AS SOURCE/SINK TERM
FACE 6 OF (J,I,K) =  117,  20,  16 IS NOT A BOUNDARY FACE.           DRAINS FLOW TREATED AS SOURCE/SINK TERM
FACE 6 OF (J,I,K) =  116,  20,   9 IS NOT A BOUNDARY FACE.           DRAINS FLOW TREATED AS SOURCE/SINK TERM
FACE 6 OF (J,I,K) =  116,  20,  10 IS NOT A BOUNDARY FACE.           DRAINS FLOW TREATED AS SOURCE/SINK TERM
FACE 6 OF (J,I,K) =  116,  20,  11 IS NOT A BOUNDARY FACE.           DRAINS FLOW TREATED AS SOURCE/SINK TERM
FACE 6 OF (J,I,K) =  116,  20,  12 IS NOT A BOUNDARY FACE.           DRAINS FLOW TREATED AS SOURCE/SINK TERM
FACE 6 OF (J,I,K) =  116,  20,  13 IS NOT A BOUNDARY FACE.           DRAINS FLOW TREATED AS SOURCE/SINK TERM
FACE 6 OF (J,I,K) =  116,  20,  14 IS NOT A BOUNDARY FACE.           DRAINS FLOW TREATED AS SOURCE/SINK TERM
FACE 6 OF (J,I,K) =  116,  20,  15 IS NOT A BOUNDARY FACE.           DRAINS FLOW TREATED AS SOURCE/SINK TERM
FACE 6 OF (J,I,K) =  116,  20,  16 IS NOT A BOUNDARY FACE.           DRAINS FLOW TREATED AS SOURCE/SINK TERM
FACE 6 OF (J,I,K) =  116,  19,   9 IS NOT A BOUNDARY FACE.           DRAINS FLOW TREATED AS SOURCE/SINK TERM
FACE 6 OF (J,I,K) =  116,  19,  10 IS NOT A BOUNDARY FACE.           DRAINS FLOW TREATED AS SOURCE/SINK TERM
FACE 6 OF (J,I,K) =  116,  19,  11 IS NOT A BOUNDARY FACE.           DRAINS FLOW TREATED AS SOURCE/SINK TERM
FACE 6 OF (J,I,K) =  116,  19,  12 IS NOT A BOUNDARY FACE.           DRAINS FLOW TREATED AS SOURCE/SINK TERM
FACE 6 OF (J,I,K) =  116,  19,  13 IS NOT A BOUNDARY FACE.           DRAINS FLOW TREATED AS SOURCE/SINK TERM
FACE 6 OF (J,I,K) =  116,  19,  14 IS NOT A BOUNDARY FACE.           DRAINS FLOW TREATED AS SOURCE/SINK TERM
FACE 6 OF (J,I,K) =  116,  19,  15 IS NOT A BOUNDARY FACE.           DRAINS FLOW TREATED AS SOURCE/SINK TERM
FACE 6 OF (J,I,K) =  116,  19,  16 IS NOT A BOUNDARY FACE.           DRAINS FLOW TREATED AS SOURCE/SINK TERM
FACE 6 OF (J,I,K) =  115,  19,   9 IS NOT A BOUNDARY FACE.           DRAINS FLOW TREATED AS SOURCE/SINK TERM
FACE 6 OF (J,I,K) =  115,  19,  10 IS NOT A BOUNDARY FACE.           DRAINS FLOW TREATED AS SOURCE/SINK TERM
FACE 6 OF (J,I,K) =  115,  19,  11 IS NOT A BOUNDARY FACE.           DRAINS FLOW TREATED AS SOURCE/SINK TERM
FACE 6 OF (J,I,K) =  115,  19,  12 IS NOT A BOUNDARY FACE.           DRAINS FLOW TREATED AS SOURCE/SINK TERM
FACE 6 OF (J,I,K) =  115,  19,  13 IS NOT A BOUNDARY FACE.           DRAINS FLOW TREATED AS SOURCE/SINK TERM
FACE 6 OF (J,I,K) =  115,  19,  14 IS NOT A BOUNDARY FACE.           DRAINS FLOW TREATED AS SOURCE/SINK TERM
FACE 6 OF (J,I,K) =  115,  19,  15 IS NOT A BOUNDARY FACE.           DRAINS FLOW TREATED AS SOURCE/SINK TERM
FACE 6 OF (J,I,K) =  115,  19,  16 IS NOT A BOUNDARY FACE.           DRAINS FLOW TREATED AS SOURCE/SINK TERM
FACE 6 OF (J,I,K) =  115,  18,   9 IS NOT A BOUNDARY FACE.           DRAINS FLOW TREATED AS SOURCE/SINK TERM
FACE 6 OF (J,I,K) =  115,  18,  10 IS NOT A BOUNDARY FACE.           DRAINS FLOW TREATED AS SOURCE/SINK TERM
FACE 6 OF (J,I,K) =  115,  18,  11 IS NOT A BOUNDARY FACE.           DRAINS FLOW TREATED AS SOURCE/SINK TERM
FACE 6 OF (J,I,K) =  115,  18,  12 IS NOT A BOUNDARY FACE.           DRAINS FLOW TREATED AS SOURCE/SINK TERM
FACE 6 OF (J,I,K) =  115,  18,  13 IS NOT A BOUNDARY FACE.           DRAINS FLOW TREATED AS SOURCE/SINK TERM
FACE 6 OF (J,I,K) =  115,  18,  14 IS NOT A BOUNDARY FACE.           DRAINS FLOW TREATED AS SOURCE/SINK TERM
FACE 6 OF (J,I,K) =  115,  18,  15 IS NOT A BOUNDARY FACE.           DRAINS FLOW TREATED AS SOURCE/SINK TERM
FACE 6 OF (J,I,K) =  115,  18,  16 IS NOT A BOUNDARY FACE.           DRAINS FLOW TREATED AS SOURCE/SINK TERM
FACE 6 OF (J,I,K) =  114,  18,   9 IS NOT A BOUNDARY FACE.           DRAINS FLOW TREATED AS SOURCE/SINK TERM
FACE 6 OF (J,I,K) =  114,  18,  10 IS NOT A BOUNDARY FACE.           DRAINS FLOW TREATED AS SOURCE/SINK TERM
FACE 6 OF (J,I,K) =  114,  18,  11 IS NOT A BOUNDARY FACE.           DRAINS FLOW TREATED AS SOURCE/SINK TERM
FACE 6 OF (J,I,K) =  114,  18,  12 IS NOT A BOUNDARY FACE.           DRAINS FLOW TREATED AS SOURCE/SINK TERM
FACE 6 OF (J,I,K) =  114,  18,  13 IS NOT A BOUNDARY FACE.           DRAINS FLOW TREATED AS SOURCE/SINK TERM
FACE 6 OF (J,I,K) =  114,  18,  14 IS NOT A BOUNDARY FACE.           DRAINS FLOW TREATED AS SOURCE/SINK TERM
FACE 6 OF (J,I,K) =  114,  18,  15 IS NOT A BOUNDARY FACE.           DRAINS FLOW TREATED AS SOURCE/SINK TERM
FACE 6 OF (J,I,K) =  114,  18,  16 IS NOT A BOUNDARY FACE.           DRAINS FLOW TREATED AS SOURCE/SINK TERM
FACE 6 OF (J,I,K) =  114,  17,   9 IS NOT A BOUNDARY FACE.           DRAINS FLOW TREATED AS SOURCE/SINK TERM
FACE 6 OF (J,I,K) =  114,  17,  10 IS NOT A BOUNDARY FACE.           DRAINS FLOW TREATED AS SOURCE/SINK TERM
FACE 6 OF (J,I,K) =  114,  17,  11 IS NOT A BOUNDARY FACE.           DRAINS FLOW TREATED AS SOURCE/SINK TERM
FACE 6 OF (J,I,K) =  114,  17,  12 IS NOT A BOUNDARY FACE.           DRAINS FLOW TREATED AS SOURCE/SINK TERM
FACE 6 OF (J,I,K) =  114,  17,  13 IS NOT A BOUNDARY FACE.           DRAINS FLOW TREATED AS SOURCE/SINK TERM
FACE 6 OF (J,I,K) =  114,  17,  14 IS NOT A BOUNDARY FACE.           DRAINS FLOW TREATED AS SOURCE/SINK TERM
FACE 6 OF (J,I,K) =  114,  17,  15 IS NOT A BOUNDARY FACE.           DRAINS FLOW TREATED AS SOURCE/SINK TERM
FACE 6 OF (J,I,K) =  114,  17,  16 IS NOT A BOUNDARY FACE.           DRAINS FLOW TREATED AS SOURCE/SINK TERM
FACE 6 OF (J,I,K) =  120,  41,   7 IS NOT A BOUNDARY FACE.           DRAINS FLOW TREATED AS SOURCE/SINK TERM
FACE 6 OF (J,I,K) =  120,  41,   8 IS NOT A BOUNDARY FACE.           DRAINS FLOW TREATED AS SOURCE/SINK TERM
FACE 6 OF (J,I,K) =  120,  41,   9 IS NOT A BOUNDARY FACE.           DRAINS FLOW TREATED AS SOURCE/SINK TERM
FACE 6 OF (J,I,K) =  120,  41,  10 IS NOT A BOUNDARY FACE.           DRAINS FLOW TREATED AS SOURCE/SINK TERM
FACE 6 OF (J,I,K) =  120,  41,  11 IS NOT A BOUNDARY FACE.           DRAINS FLOW TREATED AS SOURCE/SINK TERM
FACE 6 OF (J,I,K) =  120,  41,  12 IS NOT A BOUNDARY FACE.           DRAINS FLOW TREATED AS SOURCE/SINK TERM
FACE 6 OF (J,I,K) =  120,  41,  13 IS NOT A BOUNDARY FACE.           DRAINS FLOW TREATED AS SOURCE/SINK TERM
FACE 6 OF (J,I,K) =  120,  41,  14 IS NOT A BOUNDARY FACE.           DRAINS FLOW TREATED AS SOURCE/SINK TERM
FACE 6 OF (J,I,K) =  120,  41,  15 IS NOT A BOUNDARY FACE.           DRAINS FLOW TREATED AS SOURCE/SINK TERM
FACE 6 OF (J,I,K) =  120,  41,  16 IS NOT A BOUNDARY FACE.           DRAINS FLOW TREATED AS SOURCE/SINK TERM
FACE 6 OF (J,I,K) =  120,  40,   7 IS NOT A BOUNDARY FACE.           DRAINS FLOW TREATED AS SOURCE/SINK TERM
FACE 6 OF (J,I,K) =  120,  40,   8 IS NOT A BOUNDARY FACE.           DRAINS FLOW TREATED AS SOURCE/SINK TERM
FACE 6 OF (J,I,K) =  120,  40,   9 IS NOT A BOUNDARY FACE.           DRAINS FLOW TREATED AS SOURCE/SINK TERM
FACE 6 OF (J,I,K) =  120,  40,  10 IS NOT A BOUNDARY FACE.           DRAINS FLOW TREATED AS SOURCE/SINK TERM
FACE 6 OF (J,I,K) =  120,  40,  11 IS NOT A BOUNDARY FACE.           DRAINS FLOW TREATED AS SOURCE/SINK TERM
FACE 6 OF (J,I,K) =  120,  40,  12 IS NOT A BOUNDARY FACE.           DRAINS FLOW TREATED AS SOURCE/SINK TERM
FACE 6 OF (J,I,K) =  120,  40,  13 IS NOT A BOUNDARY FACE.           DRAINS FLOW TREATED AS SOURCE/SINK TERM
FACE 6 OF (J,I,K) =  120,  40,  14 IS NOT A BOUNDARY FACE.           DRAINS FLOW TREATED AS SOURCE/SINK TERM
FACE 6 OF (J,I,K) =  120,  40,  15 IS NOT A BOUNDARY FACE.           DRAINS FLOW TREATED AS SOURCE/SINK TERM
FACE 6 OF (J,I,K) =  120,  40,  16 IS NOT A BOUNDARY FACE.           DRAINS FLOW TREATED AS SOURCE/SINK TERM
FACE 6 OF (J,I,K) =  120,  39,   7 IS NOT A BOUNDARY FACE.           DRAINS FLOW TREATED AS SOURCE/SINK TERM
FACE 6 OF (J,I,K) =  120,  39,   8 IS NOT A BOUNDARY FACE.           DRAINS FLOW TREATED AS SOURCE/SINK TERM
FACE 6 OF (J,I,K) =  120,  39,   9 IS NOT A BOUNDARY FACE.           DRAINS FLOW TREATED AS SOURCE/SINK TERM
FACE 6 OF (J,I,K) =  120,  39,  10 IS NOT A BOUNDARY FACE.           DRAINS FLOW TREATED AS SOURCE/SINK TERM
FACE 6 OF (J,I,K) =  120,  39,  11 IS NOT A BOUNDARY FACE.           DRAINS FLOW TREATED AS SOURCE/SINK TERM
FACE 6 OF (J,I,K) =  120,  39,  12 IS NOT A BOUNDARY FACE.           DRAINS FLOW TREATED AS SOURCE/SINK TERM
FACE 6 OF (J,I,K) =  120,  39,  13 IS NOT A BOUNDARY FACE.           DRAINS FLOW TREATED AS SOURCE/SINK TERM
FACE 6 OF (J,I,K) =  120,  39,  14 IS NOT A BOUNDARY FACE.           DRAINS FLOW TREATED AS SOURCE/SINK TERM
FACE 6 OF (J,I,K) =  120,  39,  15 IS NOT A BOUNDARY FACE.           DRAINS FLOW TREATED AS SOURCE/SINK TERM
FACE 6 OF (J,I,K) =  120,  39,  16 IS NOT A BOUNDARY FACE.           DRAINS FLOW TREATED AS SOURCE/SINK TERM
FACE 6 OF (J,I,K) =  120,  38,   8 IS NOT A BOUNDARY FACE.           DRAINS FLOW TREATED AS SOURCE/SINK TERM
FACE 6 OF (J,I,K) =  120,  38,   9 IS NOT A BOUNDARY FACE.           DRAINS FLOW TREATED AS SOURCE/SINK TERM
FACE 6 OF (J,I,K) =  120,  38,  10 IS NOT A BOUNDARY FACE.           DRAINS FLOW TREATED AS SOURCE/SINK TERM
FACE 6 OF (J,I,K) =  120,  38,  11 IS NOT A BOUNDARY FACE.           DRAINS FLOW TREATED AS SOURCE/SINK TERM
FACE 6 OF (J,I,K) =  120,  38,  12 IS NOT A BOUNDARY FACE.           DRAINS FLOW TREATED AS SOURCE/SINK TERM
FACE 6 OF (J,I,K) =  120,  38,  13 IS NOT A BOUNDARY FACE.           DRAINS FLOW TREATED AS SOURCE/SINK TERM
FACE 6 OF (J,I,K) =  120,  38,  14 IS NOT A BOUNDARY FACE.           DRAINS FLOW TREATED AS SOURCE/SINK TERM
FACE 6 OF (J,I,K) =  120,  38,  15 IS NOT A BOUNDARY FACE.           DRAINS FLOW TREATED AS SOURCE/SINK TERM
FACE 6 OF (J,I,K) =  120,  38,  16 IS NOT A BOUNDARY FACE.           DRAINS FLOW TREATED AS SOURCE/SINK TERM
FACE 6 OF (J,I,K) =  120,  37,   8 IS NOT A BOUNDARY FACE.           DRAINS FLOW TREATED AS SOURCE/SINK TERM
FACE 6 OF (J,I,K) =  120,  37,   9 IS NOT A BOUNDARY FACE.           DRAINS FLOW TREATED AS SOURCE/SINK TERM
FACE 6 OF (J,I,K) =  120,  37,  10 IS NOT A BOUNDARY FACE.           DRAINS FLOW TREATED AS SOURCE/SINK TERM
FACE 6 OF (J,I,K) =  120,  37,  11 IS NOT A BOUNDARY FACE.           DRAINS FLOW TREATED AS SOURCE/SINK TERM
FACE 6 OF (J,I,K) =  120,  37,  12 IS NOT A BOUNDARY FACE.           DRAINS FLOW TREATED AS SOURCE/SINK TERM
FACE 6 OF (J,I,K) =  120,  37,  13 IS NOT A BOUNDARY FACE.           DRAINS FLOW TREATED AS SOURCE/SINK TERM
FACE 6 OF (J,I,K) =  120,  37,  14 IS NOT A BOUNDARY FACE.           DRAINS FLOW TREATED AS SOURCE/SINK TERM
FACE 6 OF (J,I,K) =  120,  37,  15 IS NOT A BOUNDARY FACE.           DRAINS FLOW TREATED AS SOURCE/SINK TERM
FACE 6 OF (J,I,K) =  120,  37,  16 IS NOT A BOUNDARY FACE.           DRAINS FLOW TREATED AS SOURCE/SINK TERM
FACE 6 OF (J,I,K) =  120,  36,   8 IS NOT A BOUNDARY FACE.           DRAINS FLOW TREATED AS SOURCE/SINK TERM
FACE 6 OF (J,I,K) =  120,  36,   9 IS NOT A BOUNDARY FACE.           DRAINS FLOW TREATED AS SOURCE/SINK TERM
FACE 6 OF (J,I,K) =  120,  36,  10 IS NOT A BOUNDARY FACE.           DRAINS FLOW TREATED AS SOURCE/SINK TERM
FACE 6 OF (J,I,K) =  120,  36,  11 IS NOT A BOUNDARY FACE.           DRAINS FLOW TREATED AS SOURCE/SINK TERM
FACE 6 OF (J,I,K) =  120,  36,  12 IS NOT A BOUNDARY FACE.           DRAINS FLOW TREATED AS SOURCE/SINK TERM
FACE 6 OF (J,I,K) =  120,  36,  13 IS NOT A BOUNDARY FACE.           DRAINS FLOW TREATED AS SOURCE/SINK TERM
FACE 6 OF (J,I,K) =  120,  36,  14 IS NOT A BOUNDARY FACE.           DRAINS FLOW TREATED AS SOURCE/SINK TERM
FACE 6 OF (J,I,K) =  120,  36,  15 IS NOT A BOUNDARY FACE.           DRAINS FLOW TREATED AS SOURCE/SINK TERM
FACE 6 OF (J,I,K) =  120,  36,  16 IS NOT A BOUNDARY FACE.           DRAINS FLOW TREATED AS SOURCE/SINK TERM
FACE 6 OF (J,I,K) =  120,  35,   8 IS NOT A BOUNDARY FACE.           DRAINS FLOW TREATED AS SOURCE/SINK TERM
FACE 6 OF (J,I,K) =  120,  35,   9 IS NOT A BOUNDARY FACE.           DRAINS FLOW TREATED AS SOURCE/SINK TERM
FACE 6 OF (J,I,K) =  120,  35,  10 IS NOT A BOUNDARY FACE.           DRAINS FLOW TREATED AS SOURCE/SINK TERM
FACE 6 OF (J,I,K) =  120,  35,  11 IS NOT A BOUNDARY FACE.           DRAINS FLOW TREATED AS SOURCE/SINK TERM
FACE 6 OF (J,I,K) =  120,  35,  12 IS NOT A BOUNDARY FACE.           DRAINS FLOW TREATED AS SOURCE/SINK TERM
FACE 6 OF (J,I,K) =  120,  35,  13 IS NOT A BOUNDARY FACE.           DRAINS FLOW TREATED AS SOURCE/SINK TERM
FACE 6 OF (J,I,K) =  120,  35,  14 IS NOT A BOUNDARY FACE.           DRAINS FLOW TREATED AS SOURCE/SINK TERM
FACE 6 OF (J,I,K) =  120,  35,  15 IS NOT A BOUNDARY FACE.           DRAINS FLOW TREATED AS SOURCE/SINK TERM
FACE 6 OF (J,I,K) =  120,  35,  16 IS NOT A BOUNDARY FACE.           DRAINS FLOW TREATED AS SOURCE/SINK TERM
FACE 6 OF (J,I,K) =  120,  34,   7 IS NOT A BOUNDARY FACE.           DRAINS FLOW TREATED AS SOURCE/SINK TERM
FACE 6 OF (J,I,K) =  120,  34,   8 IS NOT A BOUNDARY FACE.           DRAINS FLOW TREATED AS SOURCE/SINK TERM
FACE 6 OF (J,I,K) =  120,  34,   9 IS NOT A BOUNDARY FACE.           DRAINS FLOW TREATED AS SOURCE/SINK TERM
FACE 6 OF (J,I,K) =  120,  34,  10 IS NOT A BOUNDARY FACE.           DRAINS FLOW TREATED AS SOURCE/SINK TERM
FACE 6 OF (J,I,K) =  120,  34,  11 IS NOT A BOUNDARY FACE.           DRAINS FLOW TREATED AS SOURCE/SINK TERM
FACE 6 OF (J,I,K) =  120,  34,  12 IS NOT A BOUNDARY FACE.           DRAINS FLOW TREATED AS SOURCE/SINK TERM
FACE 6 OF (J,I,K) =  120,  34,  13 IS NOT A BOUNDARY FACE.           DRAINS FLOW TREATED AS SOURCE/SINK TERM
FACE 6 OF (J,I,K) =  120,  34,  14 IS NOT A BOUNDARY FACE.           DRAINS FLOW TREATED AS SOURCE/SINK TERM
FACE 6 OF (J,I,K) =  120,  34,  15 IS NOT A BOUNDARY FACE.           DRAINS FLOW TREATED AS SOURCE/SINK TERM
FACE 6 OF (J,I,K) =  120,  34,  16 IS NOT A BOUNDARY FACE.           DRAINS FLOW TREATED AS SOURCE/SINK TERM
FACE 6 OF (J,I,K) =  120,  33,   7 IS NOT A BOUNDARY FACE.           DRAINS FLOW TREATED AS SOURCE/SINK TERM
FACE 6 OF (J,I,K) =  120,  33,   8 IS NOT A BOUNDARY FACE.           DRAINS FLOW TREATED AS SOURCE/SINK TERM
FACE 6 OF (J,I,K) =  120,  33,   9 IS NOT A BOUNDARY FACE.           DRAINS FLOW TREATED AS SOURCE/SINK TERM
FACE 6 OF (J,I,K) =  120,  33,  10 IS NOT A BOUNDARY FACE.           DRAINS FLOW TREATED AS SOURCE/SINK TERM
FACE 6 OF (J,I,K) =  120,  33,  11 IS NOT A BOUNDARY FACE.           DRAINS FLOW TREATED AS SOURCE/SINK TERM
FACE 6 OF (J,I,K) =  120,  33,  12 IS NOT A BOUNDARY FACE.           DRAINS FLOW TREATED AS SOURCE/SINK TERM
FACE 6 OF (J,I,K) =  120,  33,  13 IS NOT A BOUNDARY FACE.           DRAINS FLOW TREATED AS SOURCE/SINK TERM
FACE 6 OF (J,I,K) =  120,  33,  14 IS NOT A BOUNDARY FACE.           DRAINS FLOW TREATED AS SOURCE/SINK TERM
FACE 6 OF (J,I,K) =  120,  33,  15 IS NOT A BOUNDARY FACE.           DRAINS FLOW TREATED AS SOURCE/SINK TERM
FACE 6 OF (J,I,K) =  120,  33,  16 IS NOT A BOUNDARY FACE.           DRAINS FLOW TREATED AS SOURCE/SINK TERM
FACE 6 OF (J,I,K) =  120,  32,   7 IS NOT A BOUNDARY FACE.           DRAINS FLOW TREATED AS SOURCE/SINK TERM
FACE 6 OF (J,I,K) =  120,  32,   8 IS NOT A BOUNDARY FACE.           DRAINS FLOW TREATED AS SOURCE/SINK TERM
FACE 6 OF (J,I,K) =  120,  32,   9 IS NOT A BOUNDARY FACE.           DRAINS FLOW TREATED AS SOURCE/SINK TERM
FACE 6 OF (J,I,K) =  120,  32,  10 IS NOT A BOUNDARY FACE.           DRAINS FLOW TREATED AS SOURCE/SINK TERM
FACE 6 OF (J,I,K) =  120,  32,  11 IS NOT A BOUNDARY FACE.           DRAINS FLOW TREATED AS SOURCE/SINK TERM
FACE 6 OF (J,I,K) =  120,  32,  12 IS NOT A BOUNDARY FACE.           DRAINS FLOW TREATED AS SOURCE/SINK TERM
FACE 6 OF (J,I,K) =  120,  32,  13 IS NOT A BOUNDARY FACE.           DRAINS FLOW TREATED AS SOURCE/SINK TERM
FACE 6 OF (J,I,K) =  120,  32,  14 IS NOT A BOUNDARY FACE.           DRAINS FLOW TREATED AS SOURCE/SINK TERM
FACE 6 OF (J,I,K) =  120,  32,  15 IS NOT A BOUNDARY FACE.           DRAINS FLOW TREATED AS SOURCE/SINK TERM
FACE 6 OF (J,I,K) =  120,  32,  16 IS NOT A BOUNDARY FACE.           DRAINS FLOW TREATED AS SOURCE/SINK TERM
FACE 6 OF (J,I,K) =  120,  31,   8 IS NOT A BOUNDARY FACE.           DRAINS FLOW TREATED AS SOURCE/SINK TERM
FACE 6 OF (J,I,K) =  120,  31,   9 IS NOT A BOUNDARY FACE.           DRAINS FLOW TREATED AS SOURCE/SINK TERM
FACE 6 OF (J,I,K) =  120,  31,  10 IS NOT A BOUNDARY FACE.           DRAINS FLOW TREATED AS SOURCE/SINK TERM
FACE 6 OF (J,I,K) =  120,  31,  11 IS NOT A BOUNDARY FACE.           DRAINS FLOW TREATED AS SOURCE/SINK TERM
FACE 6 OF (J,I,K) =  120,  31,  12 IS NOT A BOUNDARY FACE.           DRAINS FLOW TREATED AS SOURCE/SINK TERM
FACE 6 OF (J,I,K) =  120,  31,  13 IS NOT A BOUNDARY FACE.           DRAINS FLOW TREATED AS SOURCE/SINK TERM
FACE 6 OF (J,I,K) =  120,  31,  14 IS NOT A BOUNDARY FACE.           DRAINS FLOW TREATED AS SOURCE/SINK TERM
FACE 6 OF (J,I,K) =  120,  31,  15 IS NOT A BOUNDARY FACE.           DRAINS FLOW TREATED AS SOURCE/SINK TERM
FACE 6 OF (J,I,K) =  120,  31,  16 IS NOT A BOUNDARY FACE.           DRAINS FLOW TREATED AS SOURCE/SINK TERM
FACE 6 OF (J,I,K) =  119,  29,   8 IS NOT A BOUNDARY FACE.           DRAINS FLOW TREATED AS SOURCE/SINK TERM
FACE 6 OF (J,I,K) =  119,  29,   9 IS NOT A BOUNDARY FACE.           DRAINS FLOW TREATED AS SOURCE/SINK TERM
FACE 6 OF (J,I,K) =  119,  29,  10 IS NOT A BOUNDARY FACE.           DRAINS FLOW TREATED AS SOURCE/SINK TERM
FACE 6 OF (J,I,K) =  119,  29,  11 IS NOT A BOUNDARY FACE.           DRAINS FLOW TREATED AS SOURCE/SINK TERM
FACE 6 OF (J,I,K) =  119,  29,  12 IS NOT A BOUNDARY FACE.           DRAINS FLOW TREATED AS SOURCE/SINK TERM
FACE 6 OF (J,I,K) =  119,  29,  13 IS NOT A BOUNDARY FACE.           DRAINS FLOW TREATED AS SOURCE/SINK TERM
FACE 6 OF (J,I,K) =  119,  29,  14 IS NOT A BOUNDARY FACE.           DRAINS FLOW TREATED AS SOURCE/SINK TERM
FACE 6 OF (J,I,K) =  119,  29,  15 IS NOT A BOUNDARY FACE.           DRAINS FLOW TREATED AS SOURCE/SINK TERM
FACE 6 OF (J,I,K) =  119,  29,  16 IS NOT A BOUNDARY FACE.           DRAINS FLOW TREATED AS SOURCE/SINK TERM
FACE 6 OF (J,I,K) =  119,  28,   8 IS NOT A BOUNDARY FACE.           DRAINS FLOW TREATED AS SOURCE/SINK TERM
FACE 6 OF (J,I,K) =  119,  28,   9 IS NOT A BOUNDARY FACE.           DRAINS FLOW TREATED AS SOURCE/SINK TERM
FACE 6 OF (J,I,K) =  119,  28,  10 IS NOT A BOUNDARY FACE.           DRAINS FLOW TREATED AS SOURCE/SINK TERM
FACE 6 OF (J,I,K) =  119,  28,  11 IS NOT A BOUNDARY FACE.           DRAINS FLOW TREATED AS SOURCE/SINK TERM
FACE 6 OF (J,I,K) =  119,  28,  12 IS NOT A BOUNDARY FACE.           DRAINS FLOW TREATED AS SOURCE/SINK TERM
FACE 6 OF (J,I,K) =  119,  28,  13 IS NOT A BOUNDARY FACE.           DRAINS FLOW TREATED AS SOURCE/SINK TERM
FACE 6 OF (J,I,K) =  119,  28,  14 IS NOT A BOUNDARY FACE.           DRAINS FLOW TREATED AS SOURCE/SINK TERM
FACE 6 OF (J,I,K) =  119,  28,  15 IS NOT A BOUNDARY FACE.           DRAINS FLOW TREATED AS SOURCE/SINK TERM
FACE 6 OF (J,I,K) =  119,  28,  16 IS NOT A BOUNDARY FACE.           DRAINS FLOW TREATED AS SOURCE/SINK TERM
FACE 6 OF (J,I,K) =  119,  27,   8 IS NOT A BOUNDARY FACE.           DRAINS FLOW TREATED AS SOURCE/SINK TERM
FACE 6 OF (J,I,K) =  119,  27,   9 IS NOT A BOUNDARY FACE.           DRAINS FLOW TREATED AS SOURCE/SINK TERM
FACE 6 OF (J,I,K) =  119,  27,  10 IS NOT A BOUNDARY FACE.           DRAINS FLOW TREATED AS SOURCE/SINK TERM
FACE 6 OF (J,I,K) =  119,  27,  11 IS NOT A BOUNDARY FACE.           DRAINS FLOW TREATED AS SOURCE/SINK TERM
FACE 6 OF (J,I,K) =  119,  27,  12 IS NOT A BOUNDARY FACE.           DRAINS FLOW TREATED AS SOURCE/SINK TERM
FACE 6 OF (J,I,K) =  119,  27,  13 IS NOT A BOUNDARY FACE.           DRAINS FLOW TREATED AS SOURCE/SINK TERM
FACE 6 OF (J,I,K) =  119,  27,  14 IS NOT A BOUNDARY FACE.           DRAINS FLOW TREATED AS SOURCE/SINK TERM
FACE 6 OF (J,I,K) =  119,  27,  15 IS NOT A BOUNDARY FACE.           DRAINS FLOW TREATED AS SOURCE/SINK TERM
FACE 6 OF (J,I,K) =  119,  27,  16 IS NOT A BOUNDARY FACE.           DRAINS FLOW TREATED AS SOURCE/SINK TERM
FACE 6 OF (J,I,K) =  119,  26,   8 IS NOT A BOUNDARY FACE.           DRAINS FLOW TREATED AS SOURCE/SINK TERM
FACE 6 OF (J,I,K) =  119,  26,   9 IS NOT A BOUNDARY FACE.           DRAINS FLOW TREATED AS SOURCE/SINK TERM
FACE 6 OF (J,I,K) =  119,  26,  10 IS NOT A BOUNDARY FACE.           DRAINS FLOW TREATED AS SOURCE/SINK TERM
FACE 6 OF (J,I,K) =  119,  26,  11 IS NOT A BOUNDARY FACE.           DRAINS FLOW TREATED AS SOURCE/SINK TERM
FACE 6 OF (J,I,K) =  119,  26,  12 IS NOT A BOUNDARY FACE.           DRAINS FLOW TREATED AS SOURCE/SINK TERM
FACE 6 OF (J,I,K) =  119,  26,  13 IS NOT A BOUNDARY FACE.           DRAINS FLOW TREATED AS SOURCE/SINK TERM
FACE 6 OF (J,I,K) =  119,  26,  14 IS NOT A BOUNDARY FACE.           DRAINS FLOW TREATED AS SOURCE/SINK TERM
FACE 6 OF (J,I,K) =  119,  26,  15 IS NOT A BOUNDARY FACE.           DRAINS FLOW TREATED AS SOURCE/SINK TERM
FACE 6 OF (J,I,K) =  119,  26,  16 IS NOT A BOUNDARY FACE.           DRAINS FLOW TREATED AS SOURCE/SINK TERM
FACE 6 OF (J,I,K) =  119,  25,   8 IS NOT A BOUNDARY FACE.           DRAINS FLOW TREATED AS SOURCE/SINK TERM
FACE 6 OF (J,I,K) =  119,  25,   9 IS NOT A BOUNDARY FACE.           DRAINS FLOW TREATED AS SOURCE/SINK TERM
FACE 6 OF (J,I,K) =  119,  25,  10 IS NOT A BOUNDARY FACE.           DRAINS FLOW TREATED AS SOURCE/SINK TERM
FACE 6 OF (J,I,K) =  119,  25,  11 IS NOT A BOUNDARY FACE.           DRAINS FLOW TREATED AS SOURCE/SINK TERM
FACE 6 OF (J,I,K) =  119,  25,  12 IS NOT A BOUNDARY FACE.           DRAINS FLOW TREATED AS SOURCE/SINK TERM
FACE 6 OF (J,I,K) =  119,  25,  13 IS NOT A BOUNDARY FACE.           DRAINS FLOW TREATED AS SOURCE/SINK TERM
FACE 6 OF (J,I,K) =  119,  25,  14 IS NOT A BOUNDARY FACE.           DRAINS FLOW TREATED AS SOURCE/SINK TERM
FACE 6 OF (J,I,K) =  119,  25,  15 IS NOT A BOUNDARY FACE.           DRAINS FLOW TREATED AS SOURCE/SINK TERM
FACE 6 OF (J,I,K) =  119,  25,  16 IS NOT A BOUNDARY FACE.           DRAINS FLOW TREATED AS SOURCE/SINK TERM
FACE 6 OF (J,I,K) =  119,  24,   9 IS NOT A BOUNDARY FACE.           DRAINS FLOW TREATED AS SOURCE/SINK TERM
FACE 6 OF (J,I,K) =  119,  24,  10 IS NOT A BOUNDARY FACE.           DRAINS FLOW TREATED AS SOURCE/SINK TERM
FACE 6 OF (J,I,K) =  119,  24,  11 IS NOT A BOUNDARY FACE.           DRAINS FLOW TREATED AS SOURCE/SINK TERM
FACE 6 OF (J,I,K) =  119,  24,  12 IS NOT A BOUNDARY FACE.           DRAINS FLOW TREATED AS SOURCE/SINK TERM
FACE 6 OF (J,I,K) =  119,  24,  13 IS NOT A BOUNDARY FACE.           DRAINS FLOW TREATED AS SOURCE/SINK TERM
FACE 6 OF (J,I,K) =  119,  24,  14 IS NOT A BOUNDARY FACE.           DRAINS FLOW TREATED AS SOURCE/SINK TERM
FACE 6 OF (J,I,K) =  119,  24,  15 IS NOT A BOUNDARY FACE.           DRAINS FLOW TREATED AS SOURCE/SINK TERM
FACE 6 OF (J,I,K) =  119,  24,  16 IS NOT A BOUNDARY FACE.           DRAINS FLOW TREATED AS SOURCE/SINK TERM
FACE 6 OF (J,I,K) =  120,  58,  10 IS NOT A BOUNDARY FACE.           DRAINS FLOW TREATED AS SOURCE/SINK TERM
FACE 6 OF (J,I,K) =  120,  58,  11 IS NOT A BOUNDARY FACE.           DRAINS FLOW TREATED AS SOURCE/SINK TERM
FACE 6 OF (J,I,K) =  120,  58,  12 IS NOT A BOUNDARY FACE.           DRAINS FLOW TREATED AS SOURCE/SINK TERM
FACE 6 OF (J,I,K) =  120,  58,  13 IS NOT A BOUNDARY FACE.           DRAINS FLOW TREATED AS SOURCE/SINK TERM
FACE 6 OF (J,I,K) =  120,  58,  14 IS NOT A BOUNDARY FACE.           DRAINS FLOW TREATED AS SOURCE/SINK TERM
FACE 6 OF (J,I,K) =  120,  58,  15 IS NOT A BOUNDARY FACE.           DRAINS FLOW TREATED AS SOURCE/SINK TERM
FACE 6 OF (J,I,K) =  120,  58,  16 IS NOT A BOUNDARY FACE.           DRAINS FLOW TREATED AS SOURCE/SINK TERM
FACE 6 OF (J,I,K) =  120,  57,  10 IS NOT A BOUNDARY FACE.           DRAINS FLOW TREATED AS SOURCE/SINK TERM
FACE 6 OF (J,I,K) =  120,  57,  11 IS NOT A BOUNDARY FACE.           DRAINS FLOW TREATED AS SOURCE/SINK TERM
FACE 6 OF (J,I,K) =  120,  57,  12 IS NOT A BOUNDARY FACE.           DRAINS FLOW TREATED AS SOURCE/SINK TERM
FACE 6 OF (J,I,K) =  120,  57,  13 IS NOT A BOUNDARY FACE.           DRAINS FLOW TREATED AS SOURCE/SINK TERM
FACE 6 OF (J,I,K) =  120,  57,  14 IS NOT A BOUNDARY FACE.           DRAINS FLOW TREATED AS SOURCE/SINK TERM
FACE 6 OF (J,I,K) =  120,  57,  15 IS NOT A BOUNDARY FACE.           DRAINS FLOW TREATED AS SOURCE/SINK TERM
FACE 6 OF (J,I,K) =  120,  57,  16 IS NOT A BOUNDARY FACE.           DRAINS FLOW TREATED AS SOURCE/SINK TERM
FACE 6 OF (J,I,K) =  120,  56,  10 IS NOT A BOUNDARY FACE.           DRAINS FLOW TREATED AS SOURCE/SINK TERM
FACE 6 OF (J,I,K) =  120,  56,  11 IS NOT A BOUNDARY FACE.           DRAINS FLOW TREATED AS SOURCE/SINK TERM
FACE 6 OF (J,I,K) =  120,  56,  12 IS NOT A BOUNDARY FACE.           DRAINS FLOW TREATED AS SOURCE/SINK TERM
FACE 6 OF (J,I,K) =  120,  56,  13 IS NOT A BOUNDARY FACE.           DRAINS FLOW TREATED AS SOURCE/SINK TERM
FACE 6 OF (J,I,K) =  120,  56,  14 IS NOT A BOUNDARY FACE.           DRAINS FLOW TREATED AS SOURCE/SINK TERM
FACE 6 OF (J,I,K) =  120,  56,  15 IS NOT A BOUNDARY FACE.           DRAINS FLOW TREATED AS SOURCE/SINK TERM
FACE 6 OF (J,I,K) =  120,  56,  16 IS NOT A BOUNDARY FACE.           DRAINS FLOW TREATED AS SOURCE/SINK TERM
FACE 6 OF (J,I,K) =  120,  55,  10 IS NOT A BOUNDARY FACE.           DRAINS FLOW TREATED AS SOURCE/SINK TERM
FACE 6 OF (J,I,K) =  120,  55,  11 IS NOT A BOUNDARY FACE.           DRAINS FLOW TREATED AS SOURCE/SINK TERM
FACE 6 OF (J,I,K) =  120,  55,  12 IS NOT A BOUNDARY FACE.           DRAINS FLOW TREATED AS SOURCE/SINK TERM
FACE 6 OF (J,I,K) =  120,  55,  13 IS NOT A BOUNDARY FACE.           DRAINS FLOW TREATED AS SOURCE/SINK TERM
FACE 6 OF (J,I,K) =  120,  55,  14 IS NOT A BOUNDARY FACE.           DRAINS FLOW TREATED AS SOURCE/SINK TERM
FACE 6 OF (J,I,K) =  120,  55,  15 IS NOT A BOUNDARY FACE.           DRAINS FLOW TREATED AS SOURCE/SINK TERM
FACE 6 OF (J,I,K) =  120,  55,  16 IS NOT A BOUNDARY FACE.           DRAINS FLOW TREATED AS SOURCE/SINK TERM
FACE 6 OF (J,I,K) =  120,  54,  10 IS NOT A BOUNDARY FACE.           DRAINS FLOW TREATED AS SOURCE/SINK TERM
FACE 6 OF (J,I,K) =  120,  54,  11 IS NOT A BOUNDARY FACE.           DRAINS FLOW TREATED AS SOURCE/SINK TERM
FACE 6 OF (J,I,K) =  120,  54,  12 IS NOT A BOUNDARY FACE.           DRAINS FLOW TREATED AS SOURCE/SINK TERM
FACE 6 OF (J,I,K) =  120,  54,  13 IS NOT A BOUNDARY FACE.           DRAINS FLOW TREATED AS SOURCE/SINK TERM
FACE 6 OF (J,I,K) =  120,  54,  14 IS NOT A BOUNDARY FACE.           DRAINS FLOW TREATED AS SOURCE/SINK TERM
FACE 6 OF (J,I,K) =  120,  54,  15 IS NOT A BOUNDARY FACE.           DRAINS FLOW TREATED AS SOURCE/SINK TERM
FACE 6 OF (J,I,K) =  120,  54,  16 IS NOT A BOUNDARY FACE.           DRAINS FLOW TREATED AS SOURCE/SINK TERM
FACE 6 OF (J,I,K) =  120,  53,  10 IS NOT A BOUNDARY FACE.           DRAINS FLOW TREATED AS SOURCE/SINK TERM
FACE 6 OF (J,I,K) =  120,  53,  11 IS NOT A BOUNDARY FACE.           DRAINS FLOW TREATED AS SOURCE/SINK TERM
FACE 6 OF (J,I,K) =  120,  53,  12 IS NOT A BOUNDARY FACE.           DRAINS FLOW TREATED AS SOURCE/SINK TERM
FACE 6 OF (J,I,K) =  120,  53,  13 IS NOT A BOUNDARY FACE.           DRAINS FLOW TREATED AS SOURCE/SINK TERM
FACE 6 OF (J,I,K) =  120,  53,  14 IS NOT A BOUNDARY FACE.           DRAINS FLOW TREATED AS SOURCE/SINK TERM
FACE 6 OF (J,I,K) =  120,  53,  15 IS NOT A BOUNDARY FACE.           DRAINS FLOW TREATED AS SOURCE/SINK TERM
FACE 6 OF (J,I,K) =  120,  53,  16 IS NOT A BOUNDARY FACE.           DRAINS FLOW TREATED AS SOURCE/SINK TERM
FACE 6 OF (J,I,K) =  120,  52,   9 IS NOT A BOUNDARY FACE.           DRAINS FLOW TREATED AS SOURCE/SINK TERM
FACE 6 OF (J,I,K) =  120,  52,  10 IS NOT A BOUNDARY FACE.           DRAINS FLOW TREATED AS SOURCE/SINK TERM
FACE 6 OF (J,I,K) =  120,  52,  11 IS NOT A BOUNDARY FACE.           DRAINS FLOW TREATED AS SOURCE/SINK TERM
FACE 6 OF (J,I,K) =  120,  52,  12 IS NOT A BOUNDARY FACE.           DRAINS FLOW TREATED AS SOURCE/SINK TERM
FACE 6 OF (J,I,K) =  120,  52,  13 IS NOT A BOUNDARY FACE.           DRAINS FLOW TREATED AS SOURCE/SINK TERM
FACE 6 OF (J,I,K) =  120,  52,  14 IS NOT A BOUNDARY FACE.           DRAINS FLOW TREATED AS SOURCE/SINK TERM
FACE 6 OF (J,I,K) =  120,  52,  15 IS NOT A BOUNDARY FACE.           DRAINS FLOW TREATED AS SOURCE/SINK TERM
FACE 6 OF (J,I,K) =  120,  52,  16 IS NOT A BOUNDARY FACE.           DRAINS FLOW TREATED AS SOURCE/SINK TERM
FACE 6 OF (J,I,K) =  120,  51,   9 IS NOT A BOUNDARY FACE.           DRAINS FLOW TREATED AS SOURCE/SINK TERM
FACE 6 OF (J,I,K) =  120,  51,  10 IS NOT A BOUNDARY FACE.           DRAINS FLOW TREATED AS SOURCE/SINK TERM
FACE 6 OF (J,I,K) =  120,  51,  11 IS NOT A BOUNDARY FACE.           DRAINS FLOW TREATED AS SOURCE/SINK TERM
FACE 6 OF (J,I,K) =  120,  51,  12 IS NOT A BOUNDARY FACE.           DRAINS FLOW TREATED AS SOURCE/SINK TERM
FACE 6 OF (J,I,K) =  120,  51,  13 IS NOT A BOUNDARY FACE.           DRAINS FLOW TREATED AS SOURCE/SINK TERM
FACE 6 OF (J,I,K) =  120,  51,  14 IS NOT A BOUNDARY FACE.           DRAINS FLOW TREATED AS SOURCE/SINK TERM
FACE 6 OF (J,I,K) =  120,  51,  15 IS NOT A BOUNDARY FACE.           DRAINS FLOW TREATED AS SOURCE/SINK TERM
FACE 6 OF (J,I,K) =  120,  51,  16 IS NOT A BOUNDARY FACE.           DRAINS FLOW TREATED AS SOURCE/SINK TERM
FACE 6 OF (J,I,K) =  120,  50,   9 IS NOT A BOUNDARY FACE.           DRAINS FLOW TREATED AS SOURCE/SINK TERM
FACE 6 OF (J,I,K) =  120,  50,  10 IS NOT A BOUNDARY FACE.           DRAINS FLOW TREATED AS SOURCE/SINK TERM
FACE 6 OF (J,I,K) =  120,  50,  11 IS NOT A BOUNDARY FACE.           DRAINS FLOW TREATED AS SOURCE/SINK TERM
FACE 6 OF (J,I,K) =  120,  50,  12 IS NOT A BOUNDARY FACE.           DRAINS FLOW TREATED AS SOURCE/SINK TERM
FACE 6 OF (J,I,K) =  120,  50,  13 IS NOT A BOUNDARY FACE.           DRAINS FLOW TREATED AS SOURCE/SINK TERM
FACE 6 OF (J,I,K) =  120,  50,  14 IS NOT A BOUNDARY FACE.           DRAINS FLOW TREATED AS SOURCE/SINK TERM
FACE 6 OF (J,I,K) =  120,  50,  15 IS NOT A BOUNDARY FACE.           DRAINS FLOW TREATED AS SOURCE/SINK TERM
FACE 6 OF (J,I,K) =  120,  50,  16 IS NOT A BOUNDARY FACE.           DRAINS FLOW TREATED AS SOURCE/SINK TERM
FACE 6 OF (J,I,K) =  120,  49,   9 IS NOT A BOUNDARY FACE.           DRAINS FLOW TREATED AS SOURCE/SINK TERM
FACE 6 OF (J,I,K) =  120,  49,  10 IS NOT A BOUNDARY FACE.           DRAINS FLOW TREATED AS SOURCE/SINK TERM
FACE 6 OF (J,I,K) =  120,  49,  11 IS NOT A BOUNDARY FACE.           DRAINS FLOW TREATED AS SOURCE/SINK TERM
FACE 6 OF (J,I,K) =  120,  49,  12 IS NOT A BOUNDARY FACE.           DRAINS FLOW TREATED AS SOURCE/SINK TERM
FACE 6 OF (J,I,K) =  120,  49,  13 IS NOT A BOUNDARY FACE.           DRAINS FLOW TREATED AS SOURCE/SINK TERM
FACE 6 OF (J,I,K) =  120,  49,  14 IS NOT A BOUNDARY FACE.           DRAINS FLOW TREATED AS SOURCE/SINK TERM
FACE 6 OF (J,I,K) =  120,  49,  15 IS NOT A BOUNDARY FACE.           DRAINS FLOW TREATED AS SOURCE/SINK TERM
FACE 6 OF (J,I,K) =  120,  49,  16 IS NOT A BOUNDARY FACE.           DRAINS FLOW TREATED AS SOURCE/SINK TERM
FACE 6 OF (J,I,K) =  120,  48,   9 IS NOT A BOUNDARY FACE.           DRAINS FLOW TREATED AS SOURCE/SINK TERM
FACE 6 OF (J,I,K) =  120,  48,  10 IS NOT A BOUNDARY FACE.           DRAINS FLOW TREATED AS SOURCE/SINK TERM
FACE 6 OF (J,I,K) =  120,  48,  11 IS NOT A BOUNDARY FACE.           DRAINS FLOW TREATED AS SOURCE/SINK TERM
FACE 6 OF (J,I,K) =  120,  48,  12 IS NOT A BOUNDARY FACE.           DRAINS FLOW TREATED AS SOURCE/SINK TERM
FACE 6 OF (J,I,K) =  120,  48,  13 IS NOT A BOUNDARY FACE.           DRAINS FLOW TREATED AS SOURCE/SINK TERM
FACE 6 OF (J,I,K) =  120,  48,  14 IS NOT A BOUNDARY FACE.           DRAINS FLOW TREATED AS SOURCE/SINK TERM
FACE 6 OF (J,I,K) =  120,  48,  15 IS NOT A BOUNDARY FACE.           DRAINS FLOW TREATED AS SOURCE/SINK TERM
FACE 6 OF (J,I,K) =  120,  48,  16 IS NOT A BOUNDARY FACE.           DRAINS FLOW TREATED AS SOURCE/SINK TERM
FACE 6 OF (J,I,K) =  120,  47,   8 IS NOT A BOUNDARY FACE.           DRAINS FLOW TREATED AS SOURCE/SINK TERM
FACE 6 OF (J,I,K) =  120,  47,   9 IS NOT A BOUNDARY FACE.           DRAINS FLOW TREATED AS SOURCE/SINK TERM
FACE 6 OF (J,I,K) =  120,  47,  10 IS NOT A BOUNDARY FACE.           DRAINS FLOW TREATED AS SOURCE/SINK TERM
FACE 6 OF (J,I,K) =  120,  47,  11 IS NOT A BOUNDARY FACE.           DRAINS FLOW TREATED AS SOURCE/SINK TERM
FACE 6 OF (J,I,K) =  120,  47,  12 IS NOT A BOUNDARY FACE.           DRAINS FLOW TREATED AS SOURCE/SINK TERM
FACE 6 OF (J,I,K) =  120,  47,  13 IS NOT A BOUNDARY FACE.           DRAINS FLOW TREATED AS SOURCE/SINK TERM
FACE 6 OF (J,I,K) =  120,  47,  14 IS NOT A BOUNDARY FACE.           DRAINS FLOW TREATED AS SOURCE/SINK TERM
FACE 6 OF (J,I,K) =  120,  47,  15 IS NOT A BOUNDARY FACE.           DRAINS FLOW TREATED AS SOURCE/SINK TERM
FACE 6 OF (J,I,K) =  120,  47,  16 IS NOT A BOUNDARY FACE.           DRAINS FLOW TREATED AS SOURCE/SINK TERM
FACE 6 OF (J,I,K) =  120,  46,   8 IS NOT A BOUNDARY FACE.           DRAINS FLOW TREATED AS SOURCE/SINK TERM
FACE 6 OF (J,I,K) =  120,  46,   9 IS NOT A BOUNDARY FACE.           DRAINS FLOW TREATED AS SOURCE/SINK TERM
FACE 6 OF (J,I,K) =  120,  46,  10 IS NOT A BOUNDARY FACE.           DRAINS FLOW TREATED AS SOURCE/SINK TERM
FACE 6 OF (J,I,K) =  120,  46,  11 IS NOT A BOUNDARY FACE.           DRAINS FLOW TREATED AS SOURCE/SINK TERM
FACE 6 OF (J,I,K) =  120,  46,  12 IS NOT A BOUNDARY FACE.           DRAINS FLOW TREATED AS SOURCE/SINK TERM
FACE 6 OF (J,I,K) =  120,  46,  13 IS NOT A BOUNDARY FACE.           DRAINS FLOW TREATED AS SOURCE/SINK TERM
FACE 6 OF (J,I,K) =  120,  46,  14 IS NOT A BOUNDARY FACE.           DRAINS FLOW TREATED AS SOURCE/SINK TERM
FACE 6 OF (J,I,K) =  120,  46,  15 IS NOT A BOUNDARY FACE.           DRAINS FLOW TREATED AS SOURCE/SINK TERM
FACE 6 OF (J,I,K) =  120,  46,  16 IS NOT A BOUNDARY FACE.           DRAINS FLOW TREATED AS SOURCE/SINK TERM
FACE 6 OF (J,I,K) =  120,  45,   8 IS NOT A BOUNDARY FACE.           DRAINS FLOW TREATED AS SOURCE/SINK TERM
FACE 6 OF (J,I,K) =  120,  45,   9 IS NOT A BOUNDARY FACE.           DRAINS FLOW TREATED AS SOURCE/SINK TERM
FACE 6 OF (J,I,K) =  120,  45,  10 IS NOT A BOUNDARY FACE.           DRAINS FLOW TREATED AS SOURCE/SINK TERM
FACE 6 OF (J,I,K) =  120,  45,  11 IS NOT A BOUNDARY FACE.           DRAINS FLOW TREATED AS SOURCE/SINK TERM
FACE 6 OF (J,I,K) =  120,  45,  12 IS NOT A BOUNDARY FACE.           DRAINS FLOW TREATED AS SOURCE/SINK TERM
FACE 6 OF (J,I,K) =  120,  45,  13 IS NOT A BOUNDARY FACE.           DRAINS FLOW TREATED AS SOURCE/SINK TERM
FACE 6 OF (J,I,K) =  120,  45,  14 IS NOT A BOUNDARY FACE.           DRAINS FLOW TREATED AS SOURCE/SINK TERM
FACE 6 OF (J,I,K) =  120,  45,  15 IS NOT A BOUNDARY FACE.           DRAINS FLOW TREATED AS SOURCE/SINK TERM
FACE 6 OF (J,I,K) =  120,  45,  16 IS NOT A BOUNDARY FACE.           DRAINS FLOW TREATED AS SOURCE/SINK TERM
FACE 6 OF (J,I,K) =  120,  44,   8 IS NOT A BOUNDARY FACE.           DRAINS FLOW TREATED AS SOURCE/SINK TERM
FACE 6 OF (J,I,K) =  120,  44,   9 IS NOT A BOUNDARY FACE.           DRAINS FLOW TREATED AS SOURCE/SINK TERM
FACE 6 OF (J,I,K) =  120,  44,  10 IS NOT A BOUNDARY FACE.           DRAINS FLOW TREATED AS SOURCE/SINK TERM
FACE 6 OF (J,I,K) =  120,  44,  11 IS NOT A BOUNDARY FACE.           DRAINS FLOW TREATED AS SOURCE/SINK TERM
FACE 6 OF (J,I,K) =  120,  44,  12 IS NOT A BOUNDARY FACE.           DRAINS FLOW TREATED AS SOURCE/SINK TERM
FACE 6 OF (J,I,K) =  120,  44,  13 IS NOT A BOUNDARY FACE.           DRAINS FLOW TREATED AS SOURCE/SINK TERM
FACE 6 OF (J,I,K) =  120,  44,  14 IS NOT A BOUNDARY FACE.           DRAINS FLOW TREATED AS SOURCE/SINK TERM
FACE 6 OF (J,I,K) =  120,  44,  15 IS NOT A BOUNDARY FACE.           DRAINS FLOW TREATED AS SOURCE/SINK TERM
FACE 6 OF (J,I,K) =  120,  44,  16 IS NOT A BOUNDARY FACE.           DRAINS FLOW TREATED AS SOURCE/SINK TERM
FACE 6 OF (J,I,K) =  120,  43,   8 IS NOT A BOUNDARY FACE.           DRAINS FLOW TREATED AS SOURCE/SINK TERM
FACE 6 OF (J,I,K) =  120,  43,   9 IS NOT A BOUNDARY FACE.           DRAINS FLOW TREATED AS SOURCE/SINK TERM
FACE 6 OF (J,I,K) =  120,  43,  10 IS NOT A BOUNDARY FACE.           DRAINS FLOW TREATED AS SOURCE/SINK TERM
FACE 6 OF (J,I,K) =  120,  43,  11 IS NOT A BOUNDARY FACE.           DRAINS FLOW TREATED AS SOURCE/SINK TERM
FACE 6 OF (J,I,K) =  120,  43,  12 IS NOT A BOUNDARY FACE.           DRAINS FLOW TREATED AS SOURCE/SINK TERM
FACE 6 OF (J,I,K) =  120,  43,  13 IS NOT A BOUNDARY FACE.           DRAINS FLOW TREATED AS SOURCE/SINK TERM
FACE 6 OF (J,I,K) =  120,  43,  14 IS NOT A BOUNDARY FACE.           DRAINS FLOW TREATED AS SOURCE/SINK TERM
FACE 6 OF (J,I,K) =  120,  43,  15 IS NOT A BOUNDARY FACE.           DRAINS FLOW TREATED AS SOURCE/SINK TERM
FACE 6 OF (J,I,K) =  120,  43,  16 IS NOT A BOUNDARY FACE.           DRAINS FLOW TREATED AS SOURCE/SINK TERM
FACE 6 OF (J,I,K) =  120,  42,   8 IS NOT A BOUNDARY FACE.           DRAINS FLOW TREATED AS SOURCE/SINK TERM
FACE 6 OF (J,I,K) =  120,  42,   9 IS NOT A BOUNDARY FACE.           DRAINS FLOW TREATED AS SOURCE/SINK TERM
FACE 6 OF (J,I,K) =  120,  42,  10 IS NOT A BOUNDARY FACE.           DRAINS FLOW TREATED AS SOURCE/SINK TERM
FACE 6 OF (J,I,K) =  120,  42,  11 IS NOT A BOUNDARY FACE.           DRAINS FLOW TREATED AS SOURCE/SINK TERM
FACE 6 OF (J,I,K) =  120,  42,  12 IS NOT A BOUNDARY FACE.           DRAINS FLOW TREATED AS SOURCE/SINK TERM
FACE 6 OF (J,I,K) =  120,  42,  13 IS NOT A BOUNDARY FACE.           DRAINS FLOW TREATED AS SOURCE/SINK TERM
FACE 6 OF (J,I,K) =  120,  42,  14 IS NOT A BOUNDARY FACE.           DRAINS FLOW TREATED AS SOURCE/SINK TERM
FACE 6 OF (J,I,K) =  120,  42,  15 IS NOT A BOUNDARY FACE.           DRAINS FLOW TREATED AS SOURCE/SINK TERM
FACE 6 OF (J,I,K) =  120,  42,  16 IS NOT A BOUNDARY FACE.           DRAINS FLOW TREATED AS SOURCE/SINK TERM
FACE 6 OF (J,I,K) =  120,  41,   7 IS NOT A BOUNDARY FACE.           DRAINS FLOW TREATED AS SOURCE/SINK TERM
FACE 6 OF (J,I,K) =  120,  41,   8 IS NOT A BOUNDARY FACE.           DRAINS FLOW TREATED AS SOURCE/SINK TERM
FACE 6 OF (J,I,K) =  120,  41,   9 IS NOT A BOUNDARY FACE.           DRAINS FLOW TREATED AS SOURCE/SINK TERM
FACE 6 OF (J,I,K) =  120,  41,  10 IS NOT A BOUNDARY FACE.           DRAINS FLOW TREATED AS SOURCE/SINK TERM
FACE 6 OF (J,I,K) =  120,  41,  11 IS NOT A BOUNDARY FACE.           DRAINS FLOW TREATED AS SOURCE/SINK TERM
FACE 6 OF (J,I,K) =  120,  41,  12 IS NOT A BOUNDARY FACE.           DRAINS FLOW TREATED AS SOURCE/SINK TERM
FACE 6 OF (J,I,K) =  120,  41,  13 IS NOT A BOUNDARY FACE.           DRAINS FLOW TREATED AS SOURCE/SINK TERM
FACE 6 OF (J,I,K) =  120,  41,  14 IS NOT A BOUNDARY FACE.           DRAINS FLOW TREATED AS SOURCE/SINK TERM
FACE 6 OF (J,I,K) =  120,  41,  15 IS NOT A BOUNDARY FACE.           DRAINS FLOW TREATED AS SOURCE/SINK TERM
FACE 6 OF (J,I,K) =  120,  41,  16 IS NOT A BOUNDARY FACE.           DRAINS FLOW TREATED AS SOURCE/SINK TERM
FACE 6 OF (J,I,K) =  124,  65,  10 IS NOT A BOUNDARY FACE.           DRAINS FLOW TREATED AS SOURCE/SINK TERM
FACE 6 OF (J,I,K) =  124,  65,  11 IS NOT A BOUNDARY FACE.           DRAINS FLOW TREATED AS SOURCE/SINK TERM
FACE 6 OF (J,I,K) =  124,  65,  12 IS NOT A BOUNDARY FACE.           DRAINS FLOW TREATED AS SOURCE/SINK TERM
FACE 6 OF (J,I,K) =  124,  65,  13 IS NOT A BOUNDARY FACE.           DRAINS FLOW TREATED AS SOURCE/SINK TERM
FACE 6 OF (J,I,K) =  124,  65,  14 IS NOT A BOUNDARY FACE.           DRAINS FLOW TREATED AS SOURCE/SINK TERM
FACE 6 OF (J,I,K) =  124,  65,  15 IS NOT A BOUNDARY FACE.           DRAINS FLOW TREATED AS SOURCE/SINK TERM
FACE 6 OF (J,I,K) =  124,  65,  16 IS NOT A BOUNDARY FACE.           DRAINS FLOW TREATED AS SOURCE/SINK TERM
FACE 6 OF (J,I,K) =  123,  65,  10 IS NOT A BOUNDARY FACE.           DRAINS FLOW TREATED AS SOURCE/SINK TERM
FACE 6 OF (J,I,K) =  123,  65,  11 IS NOT A BOUNDARY FACE.           DRAINS FLOW TREATED AS SOURCE/SINK TERM
FACE 6 OF (J,I,K) =  123,  65,  12 IS NOT A BOUNDARY FACE.           DRAINS FLOW TREATED AS SOURCE/SINK TERM
FACE 6 OF (J,I,K) =  123,  65,  13 IS NOT A BOUNDARY FACE.           DRAINS FLOW TREATED AS SOURCE/SINK TERM
FACE 6 OF (J,I,K) =  123,  65,  14 IS NOT A BOUNDARY FACE.           DRAINS FLOW TREATED AS SOURCE/SINK TERM
FACE 6 OF (J,I,K) =  123,  65,  15 IS NOT A BOUNDARY FACE.           DRAINS FLOW TREATED AS SOURCE/SINK TERM
FACE 6 OF (J,I,K) =  123,  65,  16 IS NOT A BOUNDARY FACE.           DRAINS FLOW TREATED AS SOURCE/SINK TERM
FACE 6 OF (J,I,K) =  123,  64,  10 IS NOT A BOUNDARY FACE.           DRAINS FLOW TREATED AS SOURCE/SINK TERM
FACE 6 OF (J,I,K) =  123,  64,  11 IS NOT A BOUNDARY FACE.           DRAINS FLOW TREATED AS SOURCE/SINK TERM
FACE 6 OF (J,I,K) =  123,  64,  12 IS NOT A BOUNDARY FACE.           DRAINS FLOW TREATED AS SOURCE/SINK TERM
FACE 6 OF (J,I,K) =  123,  64,  13 IS NOT A BOUNDARY FACE.           DRAINS FLOW TREATED AS SOURCE/SINK TERM
FACE 6 OF (J,I,K) =  123,  64,  14 IS NOT A BOUNDARY FACE.           DRAINS FLOW TREATED AS SOURCE/SINK TERM
FACE 6 OF (J,I,K) =  123,  64,  15 IS NOT A BOUNDARY FACE.           DRAINS FLOW TREATED AS SOURCE/SINK TERM
FACE 6 OF (J,I,K) =  123,  64,  16 IS NOT A BOUNDARY FACE.           DRAINS FLOW TREATED AS SOURCE/SINK TERM
FACE 6 OF (J,I,K) =  123,  63,  10 IS NOT A BOUNDARY FACE.           DRAINS FLOW TREATED AS SOURCE/SINK TERM
FACE 6 OF (J,I,K) =  123,  63,  11 IS NOT A BOUNDARY FACE.           DRAINS FLOW TREATED AS SOURCE/SINK TERM
FACE 6 OF (J,I,K) =  123,  63,  12 IS NOT A BOUNDARY FACE.           DRAINS FLOW TREATED AS SOURCE/SINK TERM
FACE 6 OF (J,I,K) =  123,  63,  13 IS NOT A BOUNDARY FACE.           DRAINS FLOW TREATED AS SOURCE/SINK TERM
FACE 6 OF (J,I,K) =  123,  63,  14 IS NOT A BOUNDARY FACE.           DRAINS FLOW TREATED AS SOURCE/SINK TERM
FACE 6 OF (J,I,K) =  123,  63,  15 IS NOT A BOUNDARY FACE.           DRAINS FLOW TREATED AS SOURCE/SINK TERM
FACE 6 OF (J,I,K) =  123,  63,  16 IS NOT A BOUNDARY FACE.           DRAINS FLOW TREATED AS SOURCE/SINK TERM
FACE 6 OF (J,I,K) =  122,  62,  10 IS NOT A BOUNDARY FACE.           DRAINS FLOW TREATED AS SOURCE/SINK TERM
FACE 6 OF (J,I,K) =  122,  62,  11 IS NOT A BOUNDARY FACE.           DRAINS FLOW TREATED AS SOURCE/SINK TERM
FACE 6 OF (J,I,K) =  122,  62,  12 IS NOT A BOUNDARY FACE.           DRAINS FLOW TREATED AS SOURCE/SINK TERM
[...]
   47   66    1   0.0019    0.17881E-05
   47   67    1   0.0013    0.10952E-05
   48   61    1   0.0019    0.52750E-05
   48   62    1   0.0013    0.29802E-05
   48   68    1   0.0016    0.11399E-05
   48   69    1   0.0016    0.83819E-06
   49   64    1  -0.0016   -0.21011E-05
   49   65    1  -0.0017   -0.10431E-05
   49   66    1  -0.0015   -0.66310E-06
   49   69    1   0.0015    0.73016E-06
   49   70    1   0.0015    0.73016E-06
   50   59    1   0.0013    0.25928E-05
   50   61    1   0.0022    0.51558E-05
   50   65    1  -0.0010   -0.47684E-06
   50   66    1  -0.0025   -0.10245E-05
   50   70    1   0.0017    0.66683E-06
   51   58    1  -0.0013   -0.14231E-05
   51   68    1  -0.0011   -0.43586E-06
   51   70    1   0.0015    0.57369E-06
   52   57    1   0.0014    0.16689E-05
   52   58    1   0.0011    0.11474E-05
   52   65    1   0.0013    0.57369E-06
   52   66    1   0.0013    0.55134E-06
   53   55    1  -0.0015   -0.19372E-05
   53   56    1  -0.0016   -0.18254E-05
   53   57    1  -0.0018   -0.18328E-05
   53   58    1  -0.0031   -0.28014E-05
   53   59    1  -0.0015   -0.43213E-05
   53   61    1  -0.0012   -0.27567E-05
   53   65    1   0.0015    0.65565E-06
   53   66    1   0.0016    0.68173E-06
   54   64    1   0.0010    0.54389E-06
   54   65    1   0.0023    0.10468E-05
   54   66    1   0.0018    0.76741E-06
   55   54    1   0.0010    0.12964E-05
   55   55    1   0.0019    0.19670E-05
   55   56    1   0.0012    0.18775E-05
   55   57    1   0.0013    0.22650E-05
   55   59    1   0.0012    0.26077E-05
   55   60    1   0.0016    0.29951E-05
   55   61    1   0.0019    0.31441E-05
   55   62    1   0.0018    0.27716E-05
   55   66    1   0.0014    0.61095E-06
   56   57    1   0.0011    0.21756E-05
   56   58    1   0.0012    0.22948E-05
   56   59    1   0.0013    0.23097E-05
   56   60    1   0.0013    0.21607E-05
   56   61    1   0.0014    0.21160E-05
   56   62    1   0.0016    0.22501E-05
   56   67    1   0.0010    0.49174E-06
   56   68    1   0.0019    0.82701E-06
   57   67    1   0.0016    0.70408E-06
   59   50    1  -0.0014   -0.38445E-05
   61   60    1   0.0011    0.11101E-05
   63   58    1  -0.0010   -0.72271E-06
   63   59    1  -0.0012   -0.90897E-06
   63   60    1  -0.0011   -0.83447E-06
   63   78    1  -0.0021   -0.15050E-05
   64   58    1  -0.0012   -0.70408E-06
   64   59    1  -0.0016   -0.10729E-05
   64   60    1  -0.0019   -0.13411E-05
   64   61    1  -0.0018   -0.13784E-05
   64   78    1  -0.0022   -0.14827E-05
   65   61    1  -0.0011   -0.79721E-06
   65   65    1   0.0010    0.60722E-06
   65   66    1   0.0012    0.71898E-06
   65   78    1  -0.0030   -0.18328E-05
   66   66    1   0.0012    0.74878E-06
   66   67    1   0.0014    0.83447E-06
   66   68    1   0.0011    0.67055E-06
   66   78    1  -0.0033   -0.21160E-05
   67   57    1   0.0015    0.61840E-06
   67   58    1   0.0018    0.98348E-06
   67   59    1   0.0011    0.65565E-06
   67   60    1   0.0012    0.73761E-06
   67   61    1   0.0010    0.65565E-06
   67   67    1   0.0011    0.69290E-06
   67   68    1   0.0013    0.84192E-06
   67   76    1   0.0013    0.13411E-05
   67   78    1  -0.0035   -0.22426E-05
   68   55    1   0.0029    0.57556E-06
   68   57    1   0.0017    0.81211E-06
   68   58    1   0.0032    0.19222E-05
   68   59    1   0.0021    0.13635E-05
   68   60    1   0.0021    0.13933E-05
   68   61    1   0.0019    0.13337E-05
   68   62    1   0.0017    0.12442E-05
   68   68    1   0.0013    0.83447E-06
   68   76    1   0.0011    0.10654E-05
   68   78    1  -0.0038   -0.26003E-05
   69   56    1   0.0022    0.48429E-06
   69   58    1   0.0040    0.26524E-05
   69   59    1   0.0017    0.11623E-05
   69   60    1   0.0018    0.12964E-05
   69   61    1   0.0019    0.13635E-05
   69   62    1   0.0020    0.14976E-05
   69   63    1   0.0021    0.16391E-05
   69   77    1   0.0015    0.14678E-05
   69   79    1  -0.0057   -0.29728E-05
   70   56    1   0.0068    0.13933E-05
   70   57    1  -0.0017   -0.83819E-06
   70   58    1   0.0049    0.34049E-05
   70   60    1   0.0014    0.10282E-05
   70   61    1   0.0013    0.96858E-06
   70   62    1   0.0011    0.86427E-06
   70   77    1   0.0014    0.13709E-05
   70   78    1   0.0012    0.98348E-06
   70   79    1  -0.0014   -0.10729E-05
   70   80    1  -0.0027   -0.13858E-05
   70   81    1  -0.0020   -0.83447E-06
   70   82    1  -0.0012   -0.52899E-06
   70   83    1  -0.0041   -0.20526E-05
   71   58    1  -0.0012   -0.80466E-06
   71   78    1   0.0011    0.10133E-05
   71   79    1   0.0036    0.21905E-05
   71   80    1  -0.0015   -0.13262E-05
   71   81    1  -0.0036   -0.27567E-05
   71   83    1  -0.0028   -0.14603E-05
   72   57    1  -0.0010   -0.24587E-06
   72   58    1  -0.0026   -0.14938E-05
   72   79    1   0.0011    0.61095E-06
   72   80    1   0.0017    0.12442E-05
   72   81    1  -0.0012   -0.10952E-05
   72   82    1  -0.0013   -0.94622E-06
   72   83    1  -0.0031   -0.17732E-05
   73   59    1  -0.0022   -0.14380E-05
   73   60    1  -0.0012   -0.10803E-05
   73   61    1  -0.0011   -0.10058E-05
   73   79    1   0.0015    0.10058E-05
   73   83    1  -0.0029   -0.20862E-05
   74   59    1  -0.0013   -0.90897E-06
   74   61    1  -0.0011   -0.10803E-05
   74   62    1  -0.0012   -0.11772E-05
   74   63    1  -0.0012   -0.11623E-05
   74   64    1  -0.0010   -0.10654E-05
   74   79    1   0.0020    0.15125E-05
   74   80    1   0.0014    0.10505E-05
   74   82    1  -0.0010   -0.73761E-06
   74   84    1  -0.0058   -0.27455E-05
   75   81    1   0.0023    0.17136E-05
   75   82    1   0.0023    0.15274E-05
   75   83    1  -0.0049   -0.37253E-05
   76   77    1   0.0017    0.13411E-05
   76   78    1   0.0014    0.10952E-05
   76   81    1   0.0017    0.12591E-05
   76   82    1   0.0012    0.90897E-06
   76   83    1   0.0019    0.11921E-05
   76   84    1  -0.0098   -0.50813E-05
   77   77    1   0.0022    0.24140E-05
   77   78    1   0.0010    0.75996E-06
   77   82    1   0.0040    0.24177E-05
   77   84    1  -0.0090   -0.56028E-05
   78   77    1   0.0020    0.24289E-05
   78   78    1   0.0013    0.90152E-06
   78   83    1   0.0038    0.14305E-05
   78   84    1  -0.0017   -0.74506E-06
   78   85    1  -0.0069   -0.15851E-05
   79   77    1   0.0013    0.10058E-05
   79   82    1   0.0029    0.18179E-05
   79   83    1   0.0021    0.12182E-05
   79   84    1   0.0052    0.24363E-05
   79   85    1  -0.0154   -0.64783E-05
   80   78    1   0.0015    0.14529E-05
   80   84    1  -0.0036   -0.84750E-06
   81   59    1  -0.0022   -0.13858E-05
   81   79    1   0.0020    0.23022E-05
   81   80    1  -0.0027   -0.21830E-05
   81   81    1  -0.0038   -0.11474E-05
   81   83    1  -0.0021   -0.49733E-06
   81   84    1  -0.0046   -0.10598E-05
   82   59    1  -0.0011   -0.27008E-06
   82   80    1   0.0013    0.18030E-05
   82   81    1  -0.0028   -0.23246E-05
   82   82    1  -0.0051   -0.26748E-05
   82   83    1  -0.0042   -0.90152E-06
   82   84    1  -0.0028   -0.66310E-06
   83   69    1  -0.0019   -0.11213E-05
   83   79    1  -0.0030   -0.70035E-06
   83   80    1  -0.0044   -0.33155E-05
   83   81    1  -0.0035   -0.75996E-06
   83   82    1   0.0077    0.16708E-05
   83   84    1  -0.0067   -0.22091E-05
   84   79    1   0.0063    0.30138E-05
   84   80    1   0.0053    0.35986E-05
   84   81    1  -0.0088   -0.30249E-05
   85   78    1  -0.0024   -0.51036E-06
   85   79    1  -0.0033   -0.68732E-06
   86   78    1  -0.0025   -0.52527E-06
   86   79    1  -0.0027   -0.55879E-06
   87   57    1  -0.0011   -0.80466E-06
   87   77    1  -0.0010   -0.22165E-06
   87   78    1  -0.0020   -0.42468E-06
   88   56    1  -0.0011   -0.10133E-05
   88   57    1  -0.0011   -0.13560E-05
   88   78    1  -0.0017   -0.35577E-06
   89   55    1   0.0026    0.21309E-05
   89   65    1  -0.0029   -0.12010E-04
   90   55    1   0.0015    0.17434E-05
   90   56    1   0.0012    0.19670E-05
   90   63    1   0.0010    0.14901E-05
   90   64    1   0.0017    0.32485E-05
   90   65    1   0.0092    0.19133E-04
   91   54    1  -0.0039   -0.10133E-05
   91   55    1   0.0016    0.21160E-05
   92   54    1  -0.0071   -0.31739E-05
   92   57    1  -0.0010   -0.19222E-05
   92   64    1   0.0011    0.29802E-05
   93   54    1   0.0021    0.16466E-05
   93   57    1  -0.0017   -0.32336E-05
   93   62    1  -0.0017   -0.35167E-05
   93   63    1  -0.0013   -0.16838E-05
   93   64    1  -0.0029   -0.32708E-05
   93   66    1  -0.0015   -0.10431E-05
   94   53    1   0.0291    0.60666E-05
   94   54    1   0.0028    0.28461E-05
   94   56    1  -0.0012   -0.23097E-05
   94   57    1  -0.0014   -0.28610E-05
   94   66    1  -0.0027   -0.14938E-05
   94   77    1   0.0012    0.26263E-06
   95   49    1  -0.0023   -0.65006E-06
   95   50    1   0.0214    0.82478E-05
   95   53    1  -0.0027   -0.54203E-06
   95   54    1   0.0042    0.41574E-05
   95   56    1  -0.0018   -0.35912E-05
   95   57    1  -0.0011   -0.23842E-05
   95   76    1   0.0012    0.29430E-06
   95   77    1   0.0011    0.22724E-06
   95   78    1   0.0013    0.27940E-06
   95   88    1   0.0045    0.11414E-04
   96   49    1  -0.0195   -0.38873E-05
   96   50    1   0.0013    0.45821E-06
   96   54    1  -0.0147   -0.73947E-05
   96   79    1   0.0024    0.16913E-05
   96   80    1   0.0036    0.15795E-05
   96   88    1   0.0020    0.54836E-05
   96   89    1   0.0012    0.37849E-05
   97   50    1   0.0044    0.88103E-06
   97   55    1  -0.0406   -0.81100E-05
   97   56    1   0.0042    0.96858E-06
   97   57    1  -0.0042   -0.15385E-05
   97   58    1  -0.0016   -0.15721E-05
   97   59    1   0.0029    0.43958E-05
   97   78    1  -0.0024   -0.94622E-06
   97   80    1   0.0017    0.39861E-06
   97   81    1   0.0032    0.11399E-05
   97   89    1   0.0020    0.70035E-05
   97   91    1  -0.0025   -0.24363E-05
   98   59    1  -0.0120   -0.65044E-05
   98   60    1   0.0040    0.50366E-05
   98   64    1   0.0014    0.19222E-05
   98   78    1  -0.0037   -0.13523E-05
   98   79    1  -0.0020   -0.10952E-05
   98   81    1   0.0015    0.12815E-05
   98   82    1   0.0039    0.17472E-05
   98   88    1  -0.0030   -0.67651E-05
   98   89    1  -0.0046   -0.11250E-04
   98   90    1   0.0018    0.29802E-05
   99   61    1  -0.0014   -0.16615E-05
   99   79    1  -0.0030   -0.11735E-05
   99   81    1   0.0014    0.81956E-06
   99   89    1  -0.0018   -0.21011E-05
   99   90    1   0.0017    0.22799E-05
  100   49    1   0.0173    0.45635E-05
  100   50    1  -0.0239   -0.11463E-04
  100   60    1  -0.0144   -0.59456E-05
  100   61    1   0.0055    0.64969E-05
  100   73    1   0.0031    0.94771E-05
  100   80    1   0.0011    0.90152E-06
  101   48    1   0.0037    0.12219E-05
  101   49    1  -0.0035   -0.20713E-05
  101   50    1   0.0022    0.12778E-05
  101   51    1  -0.0046   -0.27716E-05
  101   52    1  -0.0303   -0.11332E-04
  101   60    1  -0.0190   -0.48466E-05
  101   61    1   0.0034    0.47833E-05
  101   62    1  -0.0011   -0.15646E-05
  101   71    1  -0.0018   -0.42468E-06
  101   72    1  -0.0021   -0.45076E-06
  101   84    1  -0.0015   -0.33155E-06
  101   85    1   0.0032    0.10841E-05
  102   47    1   0.0316    0.15665E-04
  102   48    1  -0.0256   -0.24803E-04
  102   49    1  -0.0027   -0.29206E-05
  102   50    1  -0.0030   -0.24885E-05
  102   51    1   0.0052    0.29653E-05
  102   52    1   0.0013    0.99093E-06
  102   53    1  -0.0039   -0.25183E-05
  102   54    1  -0.0068   -0.32522E-05
  102   55    1  -0.0150   -0.60126E-05
  102   59    1  -0.0065   -0.16596E-05
  102   61    1   0.0034    0.25854E-05
  102   72    1  -0.0024   -0.53830E-06
  102   73    1  -0.0025   -0.52527E-06
  102   75    1   0.0019    0.21383E-05
  102   80    1   0.0018    0.12144E-05
  102   86    1   0.0018    0.64448E-06
  103   47    1   0.0128    0.12174E-04
  103   48    1  -0.0048   -0.52303E-05
  103   49    1   0.0018    0.14529E-05
  103   50    1  -0.0011   -0.11772E-05
  103   51    1  -0.0044   -0.50813E-05
  103   52    1   0.0022    0.16913E-05
  103   54    1  -0.0024   -0.19595E-05
  103   55    1  -0.0024   -0.17285E-05
  103   56    1  -0.0018   -0.11846E-05
  103   57    1  -0.0032   -0.19744E-05
  103   58    1  -0.0037   -0.24289E-05
  103   59    1  -0.0018   -0.13486E-05
  103   60    1  -0.0021   -0.24959E-05
  103   71    1  -0.0012   -0.25705E-06
  103   75    1  -0.0024   -0.47870E-06
  103   76    1  -0.0010   -0.21979E-06
  103   83    1   0.0015    0.49546E-06
  104   47    1   0.0021    0.32485E-05
  104   48    1  -0.0029   -0.40531E-05
  104   49    1   0.0017    0.16540E-05
  104   51    1   0.0011    0.14007E-05
  104   53    1  -0.0011   -0.13933E-05
  104   55    1   0.0016    0.14827E-05
  104   56    1  -0.0022   -0.23320E-05
  104   57    1  -0.0025   -0.24438E-05
  104   59    1  -0.0014   -0.25928E-05
  104   61    1  -0.0021   -0.32783E-05
  104   77    1  -0.0013   -0.25518E-06
  105   47    1  -0.0011   -0.15795E-05
  105   48    1  -0.0038   -0.44778E-05
  105   49    1   0.0051    0.55805E-05
  105   50    1  -0.0011   -0.12666E-05
  105   52    1   0.0035    0.61691E-05
  105   57    1  -0.0028   -0.35316E-05
  105   58    1  -0.0028   -0.43958E-05
  105   59    1  -0.0015   -0.22650E-05
  105   78    1   0.0016    0.13784E-05
  105   85    1  -0.0011   -0.66161E-05
  105   87    1   0.0019    0.43958E-06
  106   47    1  -0.0011   -0.56624E-06
  106   48    1  -0.0025   -0.21011E-05
  106   49    1   0.0067    0.73463E-05
  106   53    1   0.0025    0.57220E-05
  106   54    1   0.0014    0.30249E-05
  106   57    1  -0.0013   -0.18030E-05
  106   58    1  -0.0032   -0.46939E-05
  106   59    1  -0.0014   -0.20862E-05
  106   86    1  -0.0010   -0.64373E-05
  107   48    1   0.0054    0.62436E-05
  107   50    1   0.0014    0.15348E-05
  107   51    1   0.0012    0.15199E-05
  107   53    1  -0.0027   -0.62734E-05
  107   68    1   0.0011    0.23842E-06
  108   48    1   0.0031    0.58264E-05
  108   50    1   0.0022    0.22501E-05
  108   51    1   0.0050    0.44331E-05
  108   52    1   0.0025    0.55730E-05
  108   53    1  -0.0025   -0.65267E-05
  108   62    1  -0.0049   -0.23663E-04
  108   63    1  -0.0023   -0.48280E-05
  108   68    1   0.0017    0.36880E-06
  109   49    1  -0.0013   -0.16391E-05
  109   50    1  -0.0016   -0.15572E-05
  109   51    1  -0.0014   -0.16391E-05
  109   52    1  -0.0085   -0.20042E-04
  109   61    1   0.0040    0.78678E-05
  109   63    1   0.0020    0.10915E-05
  109   66    1  -0.0013   -0.18924E-05
  110   47    1   0.0012    0.11697E-05
  110   49    1  -0.0018   -0.20266E-05
  110   50    1  -0.0029   -0.27269E-05
  110   53    1  -0.0010   -0.48876E-05
  110   62    1  -0.0011   -0.22203E-05
  110   64    1  -0.0016   -0.23544E-05
  110   67    1   0.0015    0.37067E-06
  111   47    1   0.0011    0.10207E-05
  111   51    1   0.0025    0.36806E-05
  111   52    1   0.0016    0.78380E-05
  111   65    1  -0.0010   -0.14007E-05
  111   66    1  -0.0023   -0.40233E-05
  111   76    1   0.0014    0.52899E-06
  112   47    1   0.0015    0.14156E-05
  112   48    1   0.0016    0.19073E-05
  112   51    1   0.0025    0.33379E-05
  112   52    1   0.0028    0.90301E-05
  112   66    1  -0.0012   -0.13933E-05
  112   76    1  -0.0036   -0.83260E-06
  113   46    1   0.0015    0.29244E-06
  113   47    1   0.0016    0.10282E-05
  113   51    1   0.0013    0.17583E-05
  113   52    1   0.0022    0.70333E-05
  113   56    1   0.0011    0.21458E-05
  113   58    1   0.0011    0.20266E-05
  113   66    1  -0.0011   -0.12964E-05
  113   77    1  -0.0011   -0.11399E-05
  113   78    1   0.0019    0.22426E-05
  114   47    1   0.0013    0.26636E-06
  114   48    1   0.0016    0.11101E-05
  114   52    1   0.0014    0.68843E-05
  114   59    1   0.0017    0.19968E-05
  114   61    1   0.0014    0.18179E-05
  114   62    1   0.0012    0.14976E-05
  115   49    1   0.0018    0.14603E-05
  115   51    1   0.0012    0.17732E-05
  115   52    1   0.0011    0.26971E-05
  115   57    1   0.0014    0.19819E-05
  115   59    1   0.0014    0.14454E-05
  115   60    1   0.0020    0.24289E-05
  115   61    1   0.0018    0.22650E-05
  115   62    1   0.0020    0.22799E-05
  115   63    1   0.0012    0.14454E-05
  115   67    1  -0.0029   -0.29728E-05
  115   84    1  -0.0011   -0.60350E-06
  115   90    1   0.0013    0.58413E-05
  116   49    1   0.0031    0.16354E-05
  116   52    1   0.0014    0.42617E-05
  116   61    1   0.0024    0.15013E-05
  116   62    1   0.0021    0.18552E-05
  116   63    1   0.0014    0.14007E-05
  117   65    1   0.0016    0.42096E-06
  117   66    1   0.0045    0.20266E-05
  117   68    1  -0.0066   -0.14547E-05
  119   50    1  -0.0010   -0.48801E-06
  119   51    1  -0.0011   -0.85682E-06
  119   59    1   0.0016    0.15125E-05
  119   70    1  -0.0089   -0.19595E-05
  120   49    1  -0.0070   -0.14566E-05
  120   71    1  -0.0014   -0.51782E-06
  121   48    1  -0.0165   -0.33006E-05
  121   49    1  -0.0016   -0.74878E-06
  121   51    1   0.0043    0.37551E-05
  121   53    1   0.0017    0.17881E-05
  121   59    1   0.0011    0.15199E-05
  121   72    1  -0.0016   -0.51409E-06
  122   48    1  -0.0090   -0.30585E-05
  122   50    1   0.0017    0.15050E-05
  122   51    1   0.0028    0.23618E-05
  122   52    1  -0.0011   -0.96112E-06
  122   73    1  -0.0013   -0.41351E-06
  123   48    1  -0.0049   -0.20452E-05
  123   49    1   0.0017    0.14752E-05
  123   50    1   0.0027    0.28759E-05
  124   48    1  -0.0068   -0.17546E-05
  124   74    1   0.0016    0.90525E-06
  124   75    1  -0.0050   -0.29206E-05
  125   49    1  -0.0023   -0.16466E-05
  125   55    1  -0.0013   -0.26077E-05
  126   49    1  -0.0039   -0.15460E-05
  126   55    1  -0.0014   -0.33081E-05
  126   59    1  -0.0011   -0.16689E-05
  127   49    1  -0.0040   -0.99279E-06
  127   59    1  -0.0010   -0.14454E-05
  127   60    1  -0.0016   -0.21160E-05
  127   61    1  -0.0019   -0.23097E-05
  128   49    1   0.0013    0.67800E-06
  128   51    1   0.0012    0.16391E-05
  128   61    1  -0.0015   -0.25183E-05
  129   49    1   0.0036    0.18403E-05
  129   51    1   0.0011    0.14156E-05
  129   61    1  -0.0014   -0.19521E-05
  129   62    1  -0.0011   -0.61840E-06
  129   63    1  -0.0019   -0.18924E-05
  129   72    1   0.0024    0.81211E-06
  129   73    1  -0.0032   -0.10841E-05
  130   49    1   0.0023    0.20191E-05
  130   51    1   0.0011    0.10952E-05
  130   52    1   0.0011    0.21309E-05
  130   62    1  -0.0017   -0.20862E-05
  130   63    1  -0.0012   -0.14603E-05
  131   50    1   0.0022    0.22575E-05
  131   67    1  -0.0010   -0.50664E-06
  131   68    1   0.0046    0.16131E-05
  132   48    1   0.0278    0.13884E-04
  132   49    1  -0.0241   -0.21733E-04
  132   50    1   0.0011    0.28871E-06
  132   66    1  -0.0020   -0.96112E-06
  132   67    1   0.0050    0.20824E-05
  133   48    1  -0.0045   -0.77337E-05
  133   49    1   0.0039    0.77039E-05
  134   46    1   0.0015    0.14305E-05
  134   47    1  -0.0011   -0.17881E-05
  134   65    1  -0.0013   -0.64448E-06
  134   66    1   0.0023    0.10617E-05
  135   45    1   0.0026    0.82701E-06
  135   48    1   0.0011    0.18775E-05
  135   65    1  -0.0014   -0.68545E-06
  135   66    1   0.0036    0.14640E-05
  136   47    1   0.0010    0.18775E-05
  136   48    1   0.0012    0.18775E-05
  136   51    1   0.0015    0.13411E-04
    
 TRAVEL TIME SUMMARY FOR ALL PARTICLES:
 MINIMUM TRAVEL TIME =   3.65398E+04
 MAXIMUM TRAVEL TIME =   8.79906E+05
 AVERAGE TRAVEL TIME =   2.45610E+05
   75.0% OF THE PARTICLES HAD TRAVEL TIMES LESS THAN THEAVERAGE TRAVEL TIME
    
       0 PARTICLES REMAIN ACTIVE
      48 PARTICLES STOPPED AT INTERNAL SINKS/SOURCES OR BOUNDARIES
       0 PARTICLES STOPPED IN AN AUTOMATIC TERMINATION ZONE
       0 PARTICLES WERE STRANDED IN INACTIVE CELLS
       0 PARTICLES WERE NOT RELEASED
 -----
      48 PARTICLES ACCOUNTED FOR OUT OF A TOTAL OF      48
