MODPATH 5.0                                                                                                                                                                                                                                                     

 FILE UNIT NUMBER  10 HAS BEEN CONNECTED TO <B_MODPATH_particle set.mdf>
 FILE UNIT NUMBER  19 HAS BEEN CONNECTED TO <C:\pest\A\B_MODFLOW\B.dis>
 FILE UNIT NUMBER  71 WILL BE CONNECTED TO <B_MODPATH_particle set.loc>
 FILE UNIT NUMBER  75 WILL BE CONNECTED TO <B_MODPATH_particle set.ept>
 FILE UNIT NUMBER  76 WILL BE CONNECTED TO <B_MODPATH_particle set.pth>
 FILE UNIT NUMBER 730 HAS BEEN CONNECTED TO <C:\pest\A\B_MODFLOW\B.hed>
 FILE UNIT NUMBER  40 HAS BEEN CONNECTED TO <C:\pest\A\B_MODFLOW\B.ccf>
 

 DISCRETIZATION INPUT DATA READ FROM UNIT 19
 # MF2K DISCRETIZATION FILE
 #
 #
 # NLAY NROW NCOL NPER TIMEUNITS LENUNITS
    6 LAYERS       140 ROWS       120 COLUMNS
   1 STRESS PERIOD(S) IN SIMULATION
 MODEL TIME UNIT IS DAYS
 MODEL LENGTH UNIT IS METERS
  Confining bed flag for each layer:
   0   0   0   0   0   0
  IRCHTP=            1      IEVTTP=            1
 MAXIMUM NUMBER OF PARTICLES IS   500000
 5829296 ELEMENTS IN THE "A" ARRAY



                               DELR
 READING ON UNIT  19 WITH FORMAT: (FREE)              



                               DELC
 READING ON UNIT  19 WITH FORMAT: (FREE)              


 STRESS PERIOD     LENGTH       TIME STEPS     MULTIPLIER FOR DELT    SS FLAG
 ----------------------------------------------------------------------------
        1         1.000000          1                    1.000         SS

 STEADY-STATE SIMULATION



  
  120 COLUMNS  140 ROWS    6 LAYERS    0 CONFINING LAYERS
 IGRID (GRID TYPE CODE) IS 0
  
 LAYCON (LAYER TYPE CODES):
  1  1  1  1  1  1



           IBOUND                   FOR LAYER   1
 READING ON UNIT  10 WITH FORMAT: (FREE)              



           IBOUND                   FOR LAYER   2
 READING ON UNIT  10 WITH FORMAT: (FREE)              



           IBOUND                   FOR LAYER   3
 READING ON UNIT  10 WITH FORMAT: (FREE)              



           IBOUND                   FOR LAYER   4
 READING ON UNIT  10 WITH FORMAT: (FREE)              



           IBOUND                   FOR LAYER   5
 READING ON UNIT  10 WITH FORMAT: (FREE)              



           IBOUND                   FOR LAYER   6
 READING ON UNIT  10 WITH FORMAT: (FREE)              



           POROSITY                 FOR LAYER   1
 READING ON UNIT  10 WITH FORMAT: (FREE)              



           POROSITY                 FOR LAYER   2
 READING ON UNIT  10 WITH FORMAT: (FREE)              



           POROSITY                 FOR LAYER   3
 READING ON UNIT  10 WITH FORMAT: (FREE)              



           POROSITY                 FOR LAYER   4
 READING ON UNIT  10 WITH FORMAT: (FREE)              



           POROSITY                 FOR LAYER   5
 READING ON UNIT  10 WITH FORMAT: (FREE)              



           POROSITY                 FOR LAYER   6
 READING ON UNIT  10 WITH FORMAT: (FREE)              
 Single Precision Binary Files determined from Head file
  
  ---------------
 HEADS WERE READ FOR LAYER   1, STRESS PERIOD   1 TIME STEP    1
 HEADS WERE READ FOR LAYER   2, STRESS PERIOD   1 TIME STEP    1
 HEADS WERE READ FOR LAYER   3, STRESS PERIOD   1 TIME STEP    1
 HEADS WERE READ FOR LAYER   4, STRESS PERIOD   1 TIME STEP    1
 HEADS WERE READ FOR LAYER   5, STRESS PERIOD   1 TIME STEP    1
 HEADS WERE READ FOR LAYER   6, STRESS PERIOD   1 TIME STEP    1
 HEADS HAVE BEEN READ
 READING FLOW PACKAGE BUDGET DATA FOR STRESS PERIOD    1 , TIME STEP    1 ...
 Reading    CONSTANT HEAD for Period    1   Time Step    1
 Reading FLOW RIGHT FACE  for Period    1   Time Step    1
 Reading FLOW FRONT FACE  for Period    1   Time Step    1
 Reading FLOW LOWER FACE  for Period    1   Time Step    1
   FLOW RATES BETWEEN CELLS HAVE BEEN READ
 Reading    RIVER LEAKAGE for Period    1   Time Step    1
FACE 6 OF (J,I,K) =   15, 113,   2 IS NOT A BOUNDARY FACE.    RIVER LEAKAGE FLOW TREATED AS SOURCE/SINK TERM
FACE 6 OF (J,I,K) =   15, 112,   2 IS NOT A BOUNDARY FACE.    RIVER LEAKAGE FLOW TREATED AS SOURCE/SINK TERM
FACE 6 OF (J,I,K) =   14, 111,   2 IS NOT A BOUNDARY FACE.    RIVER LEAKAGE FLOW TREATED AS SOURCE/SINK TERM
FACE 6 OF (J,I,K) =   14, 110,   2 IS NOT A BOUNDARY FACE.    RIVER LEAKAGE FLOW TREATED AS SOURCE/SINK TERM
FACE 6 OF (J,I,K) =   16, 113,   2 IS NOT A BOUNDARY FACE.    RIVER LEAKAGE FLOW TREATED AS SOURCE/SINK TERM
FACE 6 OF (J,I,K) =   15, 113,   2 IS NOT A BOUNDARY FACE.    RIVER LEAKAGE FLOW TREATED AS SOURCE/SINK TERM
 Reading               ET for Period    1   Time Step    1
 Reading  HEAD DEP BOUNDS for Period    1   Time Step    1
FACE 6 OF (J,I,K) =   38, 125,   2 IS NOT A BOUNDARY FACE.  HEAD DEP BOUNDS FLOW TREATED AS SOURCE/SINK TERM
FACE 6 OF (J,I,K) =   38, 125,   3 IS NOT A BOUNDARY FACE.  HEAD DEP BOUNDS FLOW TREATED AS SOURCE/SINK TERM
FACE 6 OF (J,I,K) =   38, 125,   4 IS NOT A BOUNDARY FACE.  HEAD DEP BOUNDS FLOW TREATED AS SOURCE/SINK TERM
FACE 6 OF (J,I,K) =   38, 125,   5 IS NOT A BOUNDARY FACE.  HEAD DEP BOUNDS FLOW TREATED AS SOURCE/SINK TERM
FACE 6 OF (J,I,K) =   38, 125,   6 IS NOT A BOUNDARY FACE.  HEAD DEP BOUNDS FLOW TREATED AS SOURCE/SINK TERM
FACE 6 OF (J,I,K) =   37, 125,   2 IS NOT A BOUNDARY FACE.  HEAD DEP BOUNDS FLOW TREATED AS SOURCE/SINK TERM
FACE 6 OF (J,I,K) =   37, 125,   3 IS NOT A BOUNDARY FACE.  HEAD DEP BOUNDS FLOW TREATED AS SOURCE/SINK TERM
FACE 6 OF (J,I,K) =   37, 125,   4 IS NOT A BOUNDARY FACE.  HEAD DEP BOUNDS FLOW TREATED AS SOURCE/SINK TERM
FACE 6 OF (J,I,K) =   37, 125,   5 IS NOT A BOUNDARY FACE.  HEAD DEP BOUNDS FLOW TREATED AS SOURCE/SINK TERM
FACE 6 OF (J,I,K) =   37, 125,   6 IS NOT A BOUNDARY FACE.  HEAD DEP BOUNDS FLOW TREATED AS SOURCE/SINK TERM
FACE 6 OF (J,I,K) =   36, 125,   2 IS NOT A BOUNDARY FACE.  HEAD DEP BOUNDS FLOW TREATED AS SOURCE/SINK TERM
FACE 6 OF (J,I,K) =   36, 125,   3 IS NOT A BOUNDARY FACE.  HEAD DEP BOUNDS FLOW TREATED AS SOURCE/SINK TERM
FACE 6 OF (J,I,K) =   36, 125,   4 IS NOT A BOUNDARY FACE.  HEAD DEP BOUNDS FLOW TREATED AS SOURCE/SINK TERM
FACE 6 OF (J,I,K) =   36, 125,   5 IS NOT A BOUNDARY FACE.  HEAD DEP BOUNDS FLOW TREATED AS SOURCE/SINK TERM
FACE 6 OF (J,I,K) =   36, 125,   6 IS NOT A BOUNDARY FACE.  HEAD DEP BOUNDS FLOW TREATED AS SOURCE/SINK TERM
FACE 6 OF (J,I,K) =   35, 125,   2 IS NOT A BOUNDARY FACE.  HEAD DEP BOUNDS FLOW TREATED AS SOURCE/SINK TERM
FACE 6 OF (J,I,K) =   35, 125,   3 IS NOT A BOUNDARY FACE.  HEAD DEP BOUNDS FLOW TREATED AS SOURCE/SINK TERM
FACE 6 OF (J,I,K) =   35, 125,   4 IS NOT A BOUNDARY FACE.  HEAD DEP BOUNDS FLOW TREATED AS SOURCE/SINK TERM
FACE 6 OF (J,I,K) =   35, 125,   5 IS NOT A BOUNDARY FACE.  HEAD DEP BOUNDS FLOW TREATED AS SOURCE/SINK TERM
FACE 6 OF (J,I,K) =   35, 125,   6 IS NOT A BOUNDARY FACE.  HEAD DEP BOUNDS FLOW TREATED AS SOURCE/SINK TERM
FACE 6 OF (J,I,K) =   34, 125,   2 IS NOT A BOUNDARY FACE.  HEAD DEP BOUNDS FLOW TREATED AS SOURCE/SINK TERM
FACE 6 OF (J,I,K) =   34, 125,   3 IS NOT A BOUNDARY FACE.  HEAD DEP BOUNDS FLOW TREATED AS SOURCE/SINK TERM
FACE 6 OF (J,I,K) =   34, 125,   4 IS NOT A BOUNDARY FACE.  HEAD DEP BOUNDS FLOW TREATED AS SOURCE/SINK TERM
FACE 6 OF (J,I,K) =   34, 125,   5 IS NOT A BOUNDARY FACE.  HEAD DEP BOUNDS FLOW TREATED AS SOURCE/SINK TERM
FACE 6 OF (J,I,K) =   34, 125,   6 IS NOT A BOUNDARY FACE.  HEAD DEP BOUNDS FLOW TREATED AS SOURCE/SINK TERM
FACE 6 OF (J,I,K) =   34, 126,   2 IS NOT A BOUNDARY FACE.  HEAD DEP BOUNDS FLOW TREATED AS SOURCE/SINK TERM
FACE 6 OF (J,I,K) =   34, 126,   3 IS NOT A BOUNDARY FACE.  HEAD DEP BOUNDS FLOW TREATED AS SOURCE/SINK TERM
FACE 6 OF (J,I,K) =   34, 126,   4 IS NOT A BOUNDARY FACE.  HEAD DEP BOUNDS FLOW TREATED AS SOURCE/SINK TERM
FACE 6 OF (J,I,K) =   34, 126,   5 IS NOT A BOUNDARY FACE.  HEAD DEP BOUNDS FLOW TREATED AS SOURCE/SINK TERM
FACE 6 OF (J,I,K) =   34, 126,   6 IS NOT A BOUNDARY FACE.  HEAD DEP BOUNDS FLOW TREATED AS SOURCE/SINK TERM
FACE 6 OF (J,I,K) =   33, 126,   2 IS NOT A BOUNDARY FACE.  HEAD DEP BOUNDS FLOW TREATED AS SOURCE/SINK TERM
FACE 6 OF (J,I,K) =   33, 126,   3 IS NOT A BOUNDARY FACE.  HEAD DEP BOUNDS FLOW TREATED AS SOURCE/SINK TERM
FACE 6 OF (J,I,K) =   33, 126,   4 IS NOT A BOUNDARY FACE.  HEAD DEP BOUNDS FLOW TREATED AS SOURCE/SINK TERM
FACE 6 OF (J,I,K) =   33, 126,   5 IS NOT A BOUNDARY FACE.  HEAD DEP BOUNDS FLOW TREATED AS SOURCE/SINK TERM
FACE 6 OF (J,I,K) =   33, 126,   6 IS NOT A BOUNDARY FACE.  HEAD DEP BOUNDS FLOW TREATED AS SOURCE/SINK TERM
FACE 6 OF (J,I,K) =   32, 126,   2 IS NOT A BOUNDARY FACE.  HEAD DEP BOUNDS FLOW TREATED AS SOURCE/SINK TERM
FACE 6 OF (J,I,K) =   32, 126,   3 IS NOT A BOUNDARY FACE.  HEAD DEP BOUNDS FLOW TREATED AS SOURCE/SINK TERM
FACE 6 OF (J,I,K) =   32, 126,   4 IS NOT A BOUNDARY FACE.  HEAD DEP BOUNDS FLOW TREATED AS SOURCE/SINK TERM
FACE 6 OF (J,I,K) =   32, 126,   5 IS NOT A BOUNDARY FACE.  HEAD DEP BOUNDS FLOW TREATED AS SOURCE/SINK TERM
FACE 6 OF (J,I,K) =   32, 126,   6 IS NOT A BOUNDARY FACE.  HEAD DEP BOUNDS FLOW TREATED AS SOURCE/SINK TERM
FACE 6 OF (J,I,K) =   31, 126,   2 IS NOT A BOUNDARY FACE.  HEAD DEP BOUNDS FLOW TREATED AS SOURCE/SINK TERM
FACE 6 OF (J,I,K) =   31, 126,   3 IS NOT A BOUNDARY FACE.  HEAD DEP BOUNDS FLOW TREATED AS SOURCE/SINK TERM
FACE 6 OF (J,I,K) =   31, 126,   4 IS NOT A BOUNDARY FACE.  HEAD DEP BOUNDS FLOW TREATED AS SOURCE/SINK TERM
FACE 6 OF (J,I,K) =   31, 126,   5 IS NOT A BOUNDARY FACE.  HEAD DEP BOUNDS FLOW TREATED AS SOURCE/SINK TERM
FACE 6 OF (J,I,K) =   31, 126,   6 IS NOT A BOUNDARY FACE.  HEAD DEP BOUNDS FLOW TREATED AS SOURCE/SINK TERM
FACE 6 OF (J,I,K) =   30, 126,   2 IS NOT A BOUNDARY FACE.  HEAD DEP BOUNDS FLOW TREATED AS SOURCE/SINK TERM
FACE 6 OF (J,I,K) =   30, 126,   3 IS NOT A BOUNDARY FACE.  HEAD DEP BOUNDS FLOW TREATED AS SOURCE/SINK TERM
FACE 6 OF (J,I,K) =   30, 126,   4 IS NOT A BOUNDARY FACE.  HEAD DEP BOUNDS FLOW TREATED AS SOURCE/SINK TERM
FACE 6 OF (J,I,K) =   30, 126,   5 IS NOT A BOUNDARY FACE.  HEAD DEP BOUNDS FLOW TREATED AS SOURCE/SINK TERM
FACE 6 OF (J,I,K) =   30, 126,   6 IS NOT A BOUNDARY FACE.  HEAD DEP BOUNDS FLOW TREATED AS SOURCE/SINK TERM
FACE 6 OF (J,I,K) =   30, 127,   2 IS NOT A BOUNDARY FACE.  HEAD DEP BOUNDS FLOW TREATED AS SOURCE/SINK TERM
FACE 6 OF (J,I,K) =   30, 127,   3 IS NOT A BOUNDARY FACE.  HEAD DEP BOUNDS FLOW TREATED AS SOURCE/SINK TERM
FACE 6 OF (J,I,K) =   30, 127,   4 IS NOT A BOUNDARY FACE.  HEAD DEP BOUNDS FLOW TREATED AS SOURCE/SINK TERM
FACE 6 OF (J,I,K) =   30, 127,   5 IS NOT A BOUNDARY FACE.  HEAD DEP BOUNDS FLOW TREATED AS SOURCE/SINK TERM
FACE 6 OF (J,I,K) =   30, 127,   6 IS NOT A BOUNDARY FACE.  HEAD DEP BOUNDS FLOW TREATED AS SOURCE/SINK TERM
FACE 6 OF (J,I,K) =   29, 127,   2 IS NOT A BOUNDARY FACE.  HEAD DEP BOUNDS FLOW TREATED AS SOURCE/SINK TERM
FACE 6 OF (J,I,K) =   29, 127,   3 IS NOT A BOUNDARY FACE.  HEAD DEP BOUNDS FLOW TREATED AS SOURCE/SINK TERM
FACE 6 OF (J,I,K) =   29, 127,   4 IS NOT A BOUNDARY FACE.  HEAD DEP BOUNDS FLOW TREATED AS SOURCE/SINK TERM
FACE 6 OF (J,I,K) =   29, 127,   5 IS NOT A BOUNDARY FACE.  HEAD DEP BOUNDS FLOW TREATED AS SOURCE/SINK TERM
FACE 6 OF (J,I,K) =   29, 127,   6 IS NOT A BOUNDARY FACE.  HEAD DEP BOUNDS FLOW TREATED AS SOURCE/SINK TERM
FACE 6 OF (J,I,K) =   28, 127,   2 IS NOT A BOUNDARY FACE.  HEAD DEP BOUNDS FLOW TREATED AS SOURCE/SINK TERM
FACE 6 OF (J,I,K) =   28, 127,   3 IS NOT A BOUNDARY FACE.  HEAD DEP BOUNDS FLOW TREATED AS SOURCE/SINK TERM
FACE 6 OF (J,I,K) =   28, 127,   4 IS NOT A BOUNDARY FACE.  HEAD DEP BOUNDS FLOW TREATED AS SOURCE/SINK TERM
FACE 6 OF (J,I,K) =   28, 127,   5 IS NOT A BOUNDARY FACE.  HEAD DEP BOUNDS FLOW TREATED AS SOURCE/SINK TERM
FACE 6 OF (J,I,K) =   28, 127,   6 IS NOT A BOUNDARY FACE.  HEAD DEP BOUNDS FLOW TREATED AS SOURCE/SINK TERM
FACE 6 OF (J,I,K) =   46, 123,   2 IS NOT A BOUNDARY FACE.  HEAD DEP BOUNDS FLOW TREATED AS SOURCE/SINK TERM
FACE 6 OF (J,I,K) =   46, 123,   3 IS NOT A BOUNDARY FACE.  HEAD DEP BOUNDS FLOW TREATED AS SOURCE/SINK TERM
FACE 6 OF (J,I,K) =   46, 123,   4 IS NOT A BOUNDARY FACE.  HEAD DEP BOUNDS FLOW TREATED AS SOURCE/SINK TERM
FACE 6 OF (J,I,K) =   46, 123,   5 IS NOT A BOUNDARY FACE.  HEAD DEP BOUNDS FLOW TREATED AS SOURCE/SINK TERM
FACE 6 OF (J,I,K) =   46, 123,   6 IS NOT A BOUNDARY FACE.  HEAD DEP BOUNDS FLOW TREATED AS SOURCE/SINK TERM
FACE 6 OF (J,I,K) =   45, 123,   2 IS NOT A BOUNDARY FACE.  HEAD DEP BOUNDS FLOW TREATED AS SOURCE/SINK TERM
FACE 6 OF (J,I,K) =   45, 123,   3 IS NOT A BOUNDARY FACE.  HEAD DEP BOUNDS FLOW TREATED AS SOURCE/SINK TERM
FACE 6 OF (J,I,K) =   45, 123,   4 IS NOT A BOUNDARY FACE.  HEAD DEP BOUNDS FLOW TREATED AS SOURCE/SINK TERM
FACE 6 OF (J,I,K) =   45, 123,   5 IS NOT A BOUNDARY FACE.  HEAD DEP BOUNDS FLOW TREATED AS SOURCE/SINK TERM
FACE 6 OF (J,I,K) =   45, 123,   6 IS NOT A BOUNDARY FACE.  HEAD DEP BOUNDS FLOW TREATED AS SOURCE/SINK TERM
FACE 6 OF (J,I,K) =   44, 123,   2 IS NOT A BOUNDARY FACE.  HEAD DEP BOUNDS FLOW TREATED AS SOURCE/SINK TERM
FACE 6 OF (J,I,K) =   44, 123,   3 IS NOT A BOUNDARY FACE.  HEAD DEP BOUNDS FLOW TREATED AS SOURCE/SINK TERM
FACE 6 OF (J,I,K) =   44, 123,   4 IS NOT A BOUNDARY FACE.  HEAD DEP BOUNDS FLOW TREATED AS SOURCE/SINK TERM
FACE 6 OF (J,I,K) =   44, 123,   5 IS NOT A BOUNDARY FACE.  HEAD DEP BOUNDS FLOW TREATED AS SOURCE/SINK TERM
FACE 6 OF (J,I,K) =   44, 123,   6 IS NOT A BOUNDARY FACE.  HEAD DEP BOUNDS FLOW TREATED AS SOURCE/SINK TERM
FACE 6 OF (J,I,K) =   44, 124,   2 IS NOT A BOUNDARY FACE.  HEAD DEP BOUNDS FLOW TREATED AS SOURCE/SINK TERM
FACE 6 OF (J,I,K) =   44, 124,   3 IS NOT A BOUNDARY FACE.  HEAD DEP BOUNDS FLOW TREATED AS SOURCE/SINK TERM
FACE 6 OF (J,I,K) =   44, 124,   4 IS NOT A BOUNDARY FACE.  HEAD DEP BOUNDS FLOW TREATED AS SOURCE/SINK TERM
FACE 6 OF (J,I,K) =   44, 124,   5 IS NOT A BOUNDARY FACE.  HEAD DEP BOUNDS FLOW TREATED AS SOURCE/SINK TERM
FACE 6 OF (J,I,K) =   44, 124,   6 IS NOT A BOUNDARY FACE.  HEAD DEP BOUNDS FLOW TREATED AS SOURCE/SINK TERM
FACE 6 OF (J,I,K) =   43, 124,   2 IS NOT A BOUNDARY FACE.  HEAD DEP BOUNDS FLOW TREATED AS SOURCE/SINK TERM
FACE 6 OF (J,I,K) =   43, 124,   3 IS NOT A BOUNDARY FACE.  HEAD DEP BOUNDS FLOW TREATED AS SOURCE/SINK TERM
FACE 6 OF (J,I,K) =   43, 124,   4 IS NOT A BOUNDARY FACE.  HEAD DEP BOUNDS FLOW TREATED AS SOURCE/SINK TERM
FACE 6 OF (J,I,K) =   43, 124,   5 IS NOT A BOUNDARY FACE.  HEAD DEP BOUNDS FLOW TREATED AS SOURCE/SINK TERM
FACE 6 OF (J,I,K) =   43, 124,   6 IS NOT A BOUNDARY FACE.  HEAD DEP BOUNDS FLOW TREATED AS SOURCE/SINK TERM
FACE 6 OF (J,I,K) =   42, 124,   2 IS NOT A BOUNDARY FACE.  HEAD DEP BOUNDS FLOW TREATED AS SOURCE/SINK TERM
FACE 6 OF (J,I,K) =   42, 124,   3 IS NOT A BOUNDARY FACE.  HEAD DEP BOUNDS FLOW TREATED AS SOURCE/SINK TERM
FACE 6 OF (J,I,K) =   42, 124,   4 IS NOT A BOUNDARY FACE.  HEAD DEP BOUNDS FLOW TREATED AS SOURCE/SINK TERM
FACE 6 OF (J,I,K) =   42, 124,   5 IS NOT A BOUNDARY FACE.  HEAD DEP BOUNDS FLOW TREATED AS SOURCE/SINK TERM
FACE 6 OF (J,I,K) =   42, 124,   6 IS NOT A BOUNDARY FACE.  HEAD DEP BOUNDS FLOW TREATED AS SOURCE/SINK TERM
FACE 6 OF (J,I,K) =   41, 124,   2 IS NOT A BOUNDARY FACE.  HEAD DEP BOUNDS FLOW TREATED AS SOURCE/SINK TERM
FACE 6 OF (J,I,K) =   41, 124,   3 IS NOT A BOUNDARY FACE.  HEAD DEP BOUNDS FLOW TREATED AS SOURCE/SINK TERM
FACE 6 OF (J,I,K) =   41, 124,   4 IS NOT A BOUNDARY FACE.  HEAD DEP BOUNDS FLOW TREATED AS SOURCE/SINK TERM
FACE 6 OF (J,I,K) =   41, 124,   5 IS NOT A BOUNDARY FACE.  HEAD DEP BOUNDS FLOW TREATED AS SOURCE/SINK TERM
FACE 6 OF (J,I,K) =   41, 124,   6 IS NOT A BOUNDARY FACE.  HEAD DEP BOUNDS FLOW TREATED AS SOURCE/SINK TERM
FACE 6 OF (J,I,K) =   40, 124,   2 IS NOT A BOUNDARY FACE.  HEAD DEP BOUNDS FLOW TREATED AS SOURCE/SINK TERM
FACE 6 OF (J,I,K) =   40, 124,   3 IS NOT A BOUNDARY FACE.  HEAD DEP BOUNDS FLOW TREATED AS SOURCE/SINK TERM
FACE 6 OF (J,I,K) =   40, 124,   4 IS NOT A BOUNDARY FACE.  HEAD DEP BOUNDS FLOW TREATED AS SOURCE/SINK TERM
FACE 6 OF (J,I,K) =   40, 124,   5 IS NOT A BOUNDARY FACE.  HEAD DEP BOUNDS FLOW TREATED AS SOURCE/SINK TERM
FACE 6 OF (J,I,K) =   40, 124,   6 IS NOT A BOUNDARY FACE.  HEAD DEP BOUNDS FLOW TREATED AS SOURCE/SINK TERM
FACE 6 OF (J,I,K) =   39, 124,   2 IS NOT A BOUNDARY FACE.  HEAD DEP BOUNDS FLOW TREATED AS SOURCE/SINK TERM
FACE 6 OF (J,I,K) =   39, 124,   3 IS NOT A BOUNDARY FACE.  HEAD DEP BOUNDS FLOW TREATED AS SOURCE/SINK TERM
FACE 6 OF (J,I,K) =   39, 124,   4 IS NOT A BOUNDARY FACE.  HEAD DEP BOUNDS FLOW TREATED AS SOURCE/SINK TERM
FACE 6 OF (J,I,K) =   39, 124,   5 IS NOT A BOUNDARY FACE.  HEAD DEP BOUNDS FLOW TREATED AS SOURCE/SINK TERM
FACE 6 OF (J,I,K) =   39, 124,   6 IS NOT A BOUNDARY FACE.  HEAD DEP BOUNDS FLOW TREATED AS SOURCE/SINK TERM
FACE 6 OF (J,I,K) =   39, 125,   2 IS NOT A BOUNDARY FACE.  HEAD DEP BOUNDS FLOW TREATED AS SOURCE/SINK TERM
FACE 6 OF (J,I,K) =   39, 125,   3 IS NOT A BOUNDARY FACE.  HEAD DEP BOUNDS FLOW TREATED AS SOURCE/SINK TERM
FACE 6 OF (J,I,K) =   39, 125,   4 IS NOT A BOUNDARY FACE.  HEAD DEP BOUNDS FLOW TREATED AS SOURCE/SINK TERM
FACE 6 OF (J,I,K) =   39, 125,   5 IS NOT A BOUNDARY FACE.  HEAD DEP BOUNDS FLOW TREATED AS SOURCE/SINK TERM
FACE 6 OF (J,I,K) =   39, 125,   6 IS NOT A BOUNDARY FACE.  HEAD DEP BOUNDS FLOW TREATED AS SOURCE/SINK TERM
FACE 6 OF (J,I,K) =   38, 125,   2 IS NOT A BOUNDARY FACE.  HEAD DEP BOUNDS FLOW TREATED AS SOURCE/SINK TERM
FACE 6 OF (J,I,K) =   38, 125,   3 IS NOT A BOUNDARY FACE.  HEAD DEP BOUNDS FLOW TREATED AS SOURCE/SINK TERM
FACE 6 OF (J,I,K) =   38, 125,   4 IS NOT A BOUNDARY FACE.  HEAD DEP BOUNDS FLOW TREATED AS SOURCE/SINK TERM
FACE 6 OF (J,I,K) =   38, 125,   5 IS NOT A BOUNDARY FACE.  HEAD DEP BOUNDS FLOW TREATED AS SOURCE/SINK TERM
FACE 6 OF (J,I,K) =   38, 125,   6 IS NOT A BOUNDARY FACE.  HEAD DEP BOUNDS FLOW TREATED AS SOURCE/SINK TERM
FACE 6 OF (J,I,K) =   51, 122,   2 IS NOT A BOUNDARY FACE.  HEAD DEP BOUNDS FLOW TREATED AS SOURCE/SINK TERM
FACE 6 OF (J,I,K) =   51, 122,   3 IS NOT A BOUNDARY FACE.  HEAD DEP BOUNDS FLOW TREATED AS SOURCE/SINK TERM
FACE 6 OF (J,I,K) =   51, 122,   4 IS NOT A BOUNDARY FACE.  HEAD DEP BOUNDS FLOW TREATED AS SOURCE/SINK TERM
FACE 6 OF (J,I,K) =   51, 122,   5 IS NOT A BOUNDARY FACE.  HEAD DEP BOUNDS FLOW TREATED AS SOURCE/SINK TERM
FACE 6 OF (J,I,K) =   51, 122,   6 IS NOT A BOUNDARY FACE.  HEAD DEP BOUNDS FLOW TREATED AS SOURCE/SINK TERM
FACE 6 OF (J,I,K) =   50, 122,   2 IS NOT A BOUNDARY FACE.  HEAD DEP BOUNDS FLOW TREATED AS SOURCE/SINK TERM
FACE 6 OF (J,I,K) =   50, 122,   3 IS NOT A BOUNDARY FACE.  HEAD DEP BOUNDS FLOW TREATED AS SOURCE/SINK TERM
FACE 6 OF (J,I,K) =   50, 122,   4 IS NOT A BOUNDARY FACE.  HEAD DEP BOUNDS FLOW TREATED AS SOURCE/SINK TERM
FACE 6 OF (J,I,K) =   50, 122,   5 IS NOT A BOUNDARY FACE.  HEAD DEP BOUNDS FLOW TREATED AS SOURCE/SINK TERM
FACE 6 OF (J,I,K) =   50, 122,   6 IS NOT A BOUNDARY FACE.  HEAD DEP BOUNDS FLOW TREATED AS SOURCE/SINK TERM
FACE 6 OF (J,I,K) =   49, 122,   2 IS NOT A BOUNDARY FACE.  HEAD DEP BOUNDS FLOW TREATED AS SOURCE/SINK TERM
FACE 6 OF (J,I,K) =   49, 122,   3 IS NOT A BOUNDARY FACE.  HEAD DEP BOUNDS FLOW TREATED AS SOURCE/SINK TERM
FACE 6 OF (J,I,K) =   49, 122,   4 IS NOT A BOUNDARY FACE.  HEAD DEP BOUNDS FLOW TREATED AS SOURCE/SINK TERM
FACE 6 OF (J,I,K) =   49, 122,   5 IS NOT A BOUNDARY FACE.  HEAD DEP BOUNDS FLOW TREATED AS SOURCE/SINK TERM
FACE 6 OF (J,I,K) =   49, 122,   6 IS NOT A BOUNDARY FACE.  HEAD DEP BOUNDS FLOW TREATED AS SOURCE/SINK TERM
FACE 6 OF (J,I,K) =   49, 123,   2 IS NOT A BOUNDARY FACE.  HEAD DEP BOUNDS FLOW TREATED AS SOURCE/SINK TERM
FACE 6 OF (J,I,K) =   49, 123,   3 IS NOT A BOUNDARY FACE.  HEAD DEP BOUNDS FLOW TREATED AS SOURCE/SINK TERM
FACE 6 OF (J,I,K) =   49, 123,   4 IS NOT A BOUNDARY FACE.  HEAD DEP BOUNDS FLOW TREATED AS SOURCE/SINK TERM
FACE 6 OF (J,I,K) =   49, 123,   5 IS NOT A BOUNDARY FACE.  HEAD DEP BOUNDS FLOW TREATED AS SOURCE/SINK TERM
FACE 6 OF (J,I,K) =   49, 123,   6 IS NOT A BOUNDARY FACE.  HEAD DEP BOUNDS FLOW TREATED AS SOURCE/SINK TERM
FACE 6 OF (J,I,K) =   48, 123,   2 IS NOT A BOUNDARY FACE.  HEAD DEP BOUNDS FLOW TREATED AS SOURCE/SINK TERM
FACE 6 OF (J,I,K) =   48, 123,   3 IS NOT A BOUNDARY FACE.  HEAD DEP BOUNDS FLOW TREATED AS SOURCE/SINK TERM
FACE 6 OF (J,I,K) =   48, 123,   4 IS NOT A BOUNDARY FACE.  HEAD DEP BOUNDS FLOW TREATED AS SOURCE/SINK TERM
FACE 6 OF (J,I,K) =   48, 123,   5 IS NOT A BOUNDARY FACE.  HEAD DEP BOUNDS FLOW TREATED AS SOURCE/SINK TERM
FACE 6 OF (J,I,K) =   48, 123,   6 IS NOT A BOUNDARY FACE.  HEAD DEP BOUNDS FLOW TREATED AS SOURCE/SINK TERM
FACE 6 OF (J,I,K) =   47, 123,   2 IS NOT A BOUNDARY FACE.  HEAD DEP BOUNDS FLOW TREATED AS SOURCE/SINK TERM
FACE 6 OF (J,I,K) =   47, 123,   3 IS NOT A BOUNDARY FACE.  HEAD DEP BOUNDS FLOW TREATED AS SOURCE/SINK TERM
FACE 6 OF (J,I,K) =   47, 123,   4 IS NOT A BOUNDARY FACE.  HEAD DEP BOUNDS FLOW TREATED AS SOURCE/SINK TERM
FACE 6 OF (J,I,K) =   47, 123,   5 IS NOT A BOUNDARY FACE.  HEAD DEP BOUNDS FLOW TREATED AS SOURCE/SINK TERM
FACE 6 OF (J,I,K) =   47, 123,   6 IS NOT A BOUNDARY FACE.  HEAD DEP BOUNDS FLOW TREATED AS SOURCE/SINK TERM
FACE 6 OF (J,I,K) =   46, 123,   2 IS NOT A BOUNDARY FACE.  HEAD DEP BOUNDS FLOW TREATED AS SOURCE/SINK TERM
FACE 6 OF (J,I,K) =   46, 123,   3 IS NOT A BOUNDARY FACE.  HEAD DEP BOUNDS FLOW TREATED AS SOURCE/SINK TERM
FACE 6 OF (J,I,K) =   46, 123,   4 IS NOT A BOUNDARY FACE.  HEAD DEP BOUNDS FLOW TREATED AS SOURCE/SINK TERM
FACE 6 OF (J,I,K) =   46, 123,   5 IS NOT A BOUNDARY FACE.  HEAD DEP BOUNDS FLOW TREATED AS SOURCE/SINK TERM
FACE 6 OF (J,I,K) =   46, 123,   6 IS NOT A BOUNDARY FACE.  HEAD DEP BOUNDS FLOW TREATED AS SOURCE/SINK TERM
FACE 6 OF (J,I,K) =   57, 121,   2 IS NOT A BOUNDARY FACE.  HEAD DEP BOUNDS FLOW TREATED AS SOURCE/SINK TERM
FACE 6 OF (J,I,K) =   57, 121,   3 IS NOT A BOUNDARY FACE.  HEAD DEP BOUNDS FLOW TREATED AS SOURCE/SINK TERM
FACE 6 OF (J,I,K) =   57, 121,   4 IS NOT A BOUNDARY FACE.  HEAD DEP BOUNDS FLOW TREATED AS SOURCE/SINK TERM
FACE 6 OF (J,I,K) =   57, 121,   5 IS NOT A BOUNDARY FACE.  HEAD DEP BOUNDS FLOW TREATED AS SOURCE/SINK TERM
FACE 6 OF (J,I,K) =   57, 121,   6 IS NOT A BOUNDARY FACE.  HEAD DEP BOUNDS FLOW TREATED AS SOURCE/SINK TERM
FACE 6 OF (J,I,K) =   56, 121,   2 IS NOT A BOUNDARY FACE.  HEAD DEP BOUNDS FLOW TREATED AS SOURCE/SINK TERM
FACE 6 OF (J,I,K) =   56, 121,   3 IS NOT A BOUNDARY FACE.  HEAD DEP BOUNDS FLOW TREATED AS SOURCE/SINK TERM
FACE 6 OF (J,I,K) =   56, 121,   4 IS NOT A BOUNDARY FACE.  HEAD DEP BOUNDS FLOW TREATED AS SOURCE/SINK TERM
FACE 6 OF (J,I,K) =   56, 121,   5 IS NOT A BOUNDARY FACE.  HEAD DEP BOUNDS FLOW TREATED AS SOURCE/SINK TERM
FACE 6 OF (J,I,K) =   56, 121,   6 IS NOT A BOUNDARY FACE.  HEAD DEP BOUNDS FLOW TREATED AS SOURCE/SINK TERM
FACE 6 OF (J,I,K) =   55, 121,   2 IS NOT A BOUNDARY FACE.  HEAD DEP BOUNDS FLOW TREATED AS SOURCE/SINK TERM
FACE 6 OF (J,I,K) =   55, 121,   3 IS NOT A BOUNDARY FACE.  HEAD DEP BOUNDS FLOW TREATED AS SOURCE/SINK TERM
FACE 6 OF (J,I,K) =   55, 121,   4 IS NOT A BOUNDARY FACE.  HEAD DEP BOUNDS FLOW TREATED AS SOURCE/SINK TERM
FACE 6 OF (J,I,K) =   55, 121,   5 IS NOT A BOUNDARY FACE.  HEAD DEP BOUNDS FLOW TREATED AS SOURCE/SINK TERM
FACE 6 OF (J,I,K) =   55, 121,   6 IS NOT A BOUNDARY FACE.  HEAD DEP BOUNDS FLOW TREATED AS SOURCE/SINK TERM
FACE 6 OF (J,I,K) =   54, 121,   2 IS NOT A BOUNDARY FACE.  HEAD DEP BOUNDS FLOW TREATED AS SOURCE/SINK TERM
FACE 6 OF (J,I,K) =   54, 121,   3 IS NOT A BOUNDARY FACE.  HEAD DEP BOUNDS FLOW TREATED AS SOURCE/SINK TERM
FACE 6 OF (J,I,K) =   54, 121,   4 IS NOT A BOUNDARY FACE.  HEAD DEP BOUNDS FLOW TREATED AS SOURCE/SINK TERM
FACE 6 OF (J,I,K) =   54, 121,   5 IS NOT A BOUNDARY FACE.  HEAD DEP BOUNDS FLOW TREATED AS SOURCE/SINK TERM
FACE 6 OF (J,I,K) =   54, 121,   6 IS NOT A BOUNDARY FACE.  HEAD DEP BOUNDS FLOW TREATED AS SOURCE/SINK TERM
FACE 6 OF (J,I,K) =   54, 122,   2 IS NOT A BOUNDARY FACE.  HEAD DEP BOUNDS FLOW TREATED AS SOURCE/SINK TERM
FACE 6 OF (J,I,K) =   54, 122,   3 IS NOT A BOUNDARY FACE.  HEAD DEP BOUNDS FLOW TREATED AS SOURCE/SINK TERM
FACE 6 OF (J,I,K) =   54, 122,   4 IS NOT A BOUNDARY FACE.  HEAD DEP BOUNDS FLOW TREATED AS SOURCE/SINK TERM
FACE 6 OF (J,I,K) =   54, 122,   5 IS NOT A BOUNDARY FACE.  HEAD DEP BOUNDS FLOW TREATED AS SOURCE/SINK TERM
FACE 6 OF (J,I,K) =   54, 122,   6 IS NOT A BOUNDARY FACE.  HEAD DEP BOUNDS FLOW TREATED AS SOURCE/SINK TERM
FACE 6 OF (J,I,K) =   53, 122,   2 IS NOT A BOUNDARY FACE.  HEAD DEP BOUNDS FLOW TREATED AS SOURCE/SINK TERM
FACE 6 OF (J,I,K) =   53, 122,   3 IS NOT A BOUNDARY FACE.  HEAD DEP BOUNDS FLOW TREATED AS SOURCE/SINK TERM
FACE 6 OF (J,I,K) =   53, 122,   4 IS NOT A BOUNDARY FACE.  HEAD DEP BOUNDS FLOW TREATED AS SOURCE/SINK TERM
FACE 6 OF (J,I,K) =   53, 122,   5 IS NOT A BOUNDARY FACE.  HEAD DEP BOUNDS FLOW TREATED AS SOURCE/SINK TERM
FACE 6 OF (J,I,K) =   53, 122,   6 IS NOT A BOUNDARY FACE.  HEAD DEP BOUNDS FLOW TREATED AS SOURCE/SINK TERM
FACE 6 OF (J,I,K) =   52, 122,   2 IS NOT A BOUNDARY FACE.  HEAD DEP BOUNDS FLOW TREATED AS SOURCE/SINK TERM
FACE 6 OF (J,I,K) =   52, 122,   3 IS NOT A BOUNDARY FACE.  HEAD DEP BOUNDS FLOW TREATED AS SOURCE/SINK TERM
FACE 6 OF (J,I,K) =   52, 122,   4 IS NOT A BOUNDARY FACE.  HEAD DEP BOUNDS FLOW TREATED AS SOURCE/SINK TERM
FACE 6 OF (J,I,K) =   52, 122,   5 IS NOT A BOUNDARY FACE.  HEAD DEP BOUNDS FLOW TREATED AS SOURCE/SINK TERM
FACE 6 OF (J,I,K) =   52, 122,   6 IS NOT A BOUNDARY FACE.  HEAD DEP BOUNDS FLOW TREATED AS SOURCE/SINK TERM
FACE 6 OF (J,I,K) =   51, 122,   2 IS NOT A BOUNDARY FACE.  HEAD DEP BOUNDS FLOW TREATED AS SOURCE/SINK TERM
FACE 6 OF (J,I,K) =   51, 122,   3 IS NOT A BOUNDARY FACE.  HEAD DEP BOUNDS FLOW TREATED AS SOURCE/SINK TERM
FACE 6 OF (J,I,K) =   51, 122,   4 IS NOT A BOUNDARY FACE.  HEAD DEP BOUNDS FLOW TREATED AS SOURCE/SINK TERM
FACE 6 OF (J,I,K) =   51, 122,   5 IS NOT A BOUNDARY FACE.  HEAD DEP BOUNDS FLOW TREATED AS SOURCE/SINK TERM
FACE 6 OF (J,I,K) =   51, 122,   6 IS NOT A BOUNDARY FACE.  HEAD DEP BOUNDS FLOW TREATED AS SOURCE/SINK TERM
FACE 6 OF (J,I,K) =   64, 120,   2 IS NOT A BOUNDARY FACE.  HEAD DEP BOUNDS FLOW TREATED AS SOURCE/SINK TERM
FACE 6 OF (J,I,K) =   64, 120,   3 IS NOT A BOUNDARY FACE.  HEAD DEP BOUNDS FLOW TREATED AS SOURCE/SINK TERM
FACE 6 OF (J,I,K) =   64, 120,   4 IS NOT A BOUNDARY FACE.  HEAD DEP BOUNDS FLOW TREATED AS SOURCE/SINK TERM
FACE 6 OF (J,I,K) =   64, 120,   5 IS NOT A BOUNDARY FACE.  HEAD DEP BOUNDS FLOW TREATED AS SOURCE/SINK TERM
FACE 6 OF (J,I,K) =   64, 120,   6 IS NOT A BOUNDARY FACE.  HEAD DEP BOUNDS FLOW TREATED AS SOURCE/SINK TERM
FACE 6 OF (J,I,K) =   63, 120,   2 IS NOT A BOUNDARY FACE.  HEAD DEP BOUNDS FLOW TREATED AS SOURCE/SINK TERM
FACE 6 OF (J,I,K) =   63, 120,   3 IS NOT A BOUNDARY FACE.  HEAD DEP BOUNDS FLOW TREATED AS SOURCE/SINK TERM
FACE 6 OF (J,I,K) =   63, 120,   4 IS NOT A BOUNDARY FACE.  HEAD DEP BOUNDS FLOW TREATED AS SOURCE/SINK TERM
FACE 6 OF (J,I,K) =   63, 120,   5 IS NOT A BOUNDARY FACE.  HEAD DEP BOUNDS FLOW TREATED AS SOURCE/SINK TERM
FACE 6 OF (J,I,K) =   63, 120,   6 IS NOT A BOUNDARY FACE.  HEAD DEP BOUNDS FLOW TREATED AS SOURCE/SINK TERM
FACE 6 OF (J,I,K) =   62, 120,   2 IS NOT A BOUNDARY FACE.  HEAD DEP BOUNDS FLOW TREATED AS SOURCE/SINK TERM
FACE 6 OF (J,I,K) =   62, 120,   3 IS NOT A BOUNDARY FACE.  HEAD DEP BOUNDS FLOW TREATED AS SOURCE/SINK TERM
FACE 6 OF (J,I,K) =   62, 120,   4 IS NOT A BOUNDARY FACE.  HEAD DEP BOUNDS FLOW TREATED AS SOURCE/SINK TERM
FACE 6 OF (J,I,K) =   62, 120,   5 IS NOT A BOUNDARY FACE.  HEAD DEP BOUNDS FLOW TREATED AS SOURCE/SINK TERM
FACE 6 OF (J,I,K) =   62, 120,   6 IS NOT A BOUNDARY FACE.  HEAD DEP BOUNDS FLOW TREATED AS SOURCE/SINK TERM
FACE 6 OF (J,I,K) =   61, 120,   2 IS NOT A BOUNDARY FACE.  HEAD DEP BOUNDS FLOW TREATED AS SOURCE/SINK TERM
FACE 6 OF (J,I,K) =   61, 120,   3 IS NOT A BOUNDARY FACE.  HEAD DEP BOUNDS FLOW TREATED AS SOURCE/SINK TERM
FACE 6 OF (J,I,K) =   61, 120,   4 IS NOT A BOUNDARY FACE.  HEAD DEP BOUNDS FLOW TREATED AS SOURCE/SINK TERM
FACE 6 OF (J,I,K) =   61, 120,   5 IS NOT A BOUNDARY FACE.  HEAD DEP BOUNDS FLOW TREATED AS SOURCE/SINK TERM
FACE 6 OF (J,I,K) =   61, 120,   6 IS NOT A BOUNDARY FACE.  HEAD DEP BOUNDS FLOW TREATED AS SOURCE/SINK TERM
FACE 6 OF (J,I,K) =   61, 121,   2 IS NOT A BOUNDARY FACE.  HEAD DEP BOUNDS FLOW TREATED AS SOURCE/SINK TERM
FACE 6 OF (J,I,K) =   61, 121,   3 IS NOT A BOUNDARY FACE.  HEAD DEP BOUNDS FLOW TREATED AS SOURCE/SINK TERM
FACE 6 OF (J,I,K) =   61, 121,   4 IS NOT A BOUNDARY FACE.  HEAD DEP BOUNDS FLOW TREATED AS SOURCE/SINK TERM
FACE 6 OF (J,I,K) =   61, 121,   5 IS NOT A BOUNDARY FACE.  HEAD DEP BOUNDS FLOW TREATED AS SOURCE/SINK TERM
FACE 6 OF (J,I,K) =   61, 121,   6 IS NOT A BOUNDARY FACE.  HEAD DEP BOUNDS FLOW TREATED AS SOURCE/SINK TERM
FACE 6 OF (J,I,K) =   60, 121,   2 IS NOT A BOUNDARY FACE.  HEAD DEP BOUNDS FLOW TREATED AS SOURCE/SINK TERM
FACE 6 OF (J,I,K) =   60, 121,   3 IS NOT A BOUNDARY FACE.  HEAD DEP BOUNDS FLOW TREATED AS SOURCE/SINK TERM
FACE 6 OF (J,I,K) =   60, 121,   4 IS NOT A BOUNDARY FACE.  HEAD DEP BOUNDS FLOW TREATED AS SOURCE/SINK TERM
FACE 6 OF (J,I,K) =   60, 121,   5 IS NOT A BOUNDARY FACE.  HEAD DEP BOUNDS FLOW TREATED AS SOURCE/SINK TERM
FACE 6 OF (J,I,K) =   60, 121,   6 IS NOT A BOUNDARY FACE.  HEAD DEP BOUNDS FLOW TREATED AS SOURCE/SINK TERM
FACE 6 OF (J,I,K) =   59, 121,   2 IS NOT A BOUNDARY FACE.  HEAD DEP BOUNDS FLOW TREATED AS SOURCE/SINK TERM
FACE 6 OF (J,I,K) =   59, 121,   3 IS NOT A BOUNDARY FACE.  HEAD DEP BOUNDS FLOW TREATED AS SOURCE/SINK TERM
FACE 6 OF (J,I,K) =   59, 121,   4 IS NOT A BOUNDARY FACE.  HEAD DEP BOUNDS FLOW TREATED AS SOURCE/SINK TERM
FACE 6 OF (J,I,K) =   59, 121,   5 IS NOT A BOUNDARY FACE.  HEAD DEP BOUNDS FLOW TREATED AS SOURCE/SINK TERM
FACE 6 OF (J,I,K) =   59, 121,   6 IS NOT A BOUNDARY FACE.  HEAD DEP BOUNDS FLOW TREATED AS SOURCE/SINK TERM
FACE 6 OF (J,I,K) =   58, 121,   2 IS NOT A BOUNDARY FACE.  HEAD DEP BOUNDS FLOW TREATED AS SOURCE/SINK TERM
FACE 6 OF (J,I,K) =   58, 121,   3 IS NOT A BOUNDARY FACE.  HEAD DEP BOUNDS FLOW TREATED AS SOURCE/SINK TERM
FACE 6 OF (J,I,K) =   58, 121,   4 IS NOT A BOUNDARY FACE.  HEAD DEP BOUNDS FLOW TREATED AS SOURCE/SINK TERM
FACE 6 OF (J,I,K) =   58, 121,   5 IS NOT A BOUNDARY FACE.  HEAD DEP BOUNDS FLOW TREATED AS SOURCE/SINK TERM
FACE 6 OF (J,I,K) =   58, 121,   6 IS NOT A BOUNDARY FACE.  HEAD DEP BOUNDS FLOW TREATED AS SOURCE/SINK TERM
FACE 6 OF (J,I,K) =   57, 121,   2 IS NOT A BOUNDARY FACE.  HEAD DEP BOUNDS FLOW TREATED AS SOURCE/SINK TERM
FACE 6 OF (J,I,K) =   57, 121,   3 IS NOT A BOUNDARY FACE.  HEAD DEP BOUNDS FLOW TREATED AS SOURCE/SINK TERM
FACE 6 OF (J,I,K) =   57, 121,   4 IS NOT A BOUNDARY FACE.  HEAD DEP BOUNDS FLOW TREATED AS SOURCE/SINK TERM
FACE 6 OF (J,I,K) =   57, 121,   5 IS NOT A BOUNDARY FACE.  HEAD DEP BOUNDS FLOW TREATED AS SOURCE/SINK TERM
FACE 6 OF (J,I,K) =   57, 121,   6 IS NOT A BOUNDARY FACE.  HEAD DEP BOUNDS FLOW TREATED AS SOURCE/SINK TERM
FACE 6 OF (J,I,K) =   70, 119,   2 IS NOT A BOUNDARY FACE.  HEAD DEP BOUNDS FLOW TREATED AS SOURCE/SINK TERM
FACE 6 OF (J,I,K) =   70, 119,   3 IS NOT A BOUNDARY FACE.  HEAD DEP BOUNDS FLOW TREATED AS SOURCE/SINK TERM
FACE 6 OF (J,I,K) =   70, 119,   4 IS NOT A BOUNDARY FACE.  HEAD DEP BOUNDS FLOW TREATED AS SOURCE/SINK TERM
FACE 6 OF (J,I,K) =   70, 119,   5 IS NOT A BOUNDARY FACE.  HEAD DEP BOUNDS FLOW TREATED AS SOURCE/SINK TERM
FACE 6 OF (J,I,K) =   70, 119,   6 IS NOT A BOUNDARY FACE.  HEAD DEP BOUNDS FLOW TREATED AS SOURCE/SINK TERM
FACE 6 OF (J,I,K) =   69, 119,   2 IS NOT A BOUNDARY FACE.  HEAD DEP BOUNDS FLOW TREATED AS SOURCE/SINK TERM
FACE 6 OF (J,I,K) =   69, 119,   3 IS NOT A BOUNDARY FACE.  HEAD DEP BOUNDS FLOW TREATED AS SOURCE/SINK TERM
FACE 6 OF (J,I,K) =   69, 119,   4 IS NOT A BOUNDARY FACE.  HEAD DEP BOUNDS FLOW TREATED AS SOURCE/SINK TERM
FACE 6 OF (J,I,K) =   69, 119,   5 IS NOT A BOUNDARY FACE.  HEAD DEP BOUNDS FLOW TREATED AS SOURCE/SINK TERM
FACE 6 OF (J,I,K) =   69, 119,   6 IS NOT A BOUNDARY FACE.  HEAD DEP BOUNDS FLOW TREATED AS SOURCE/SINK TERM
FACE 6 OF (J,I,K) =   68, 119,   2 IS NOT A BOUNDARY FACE.  HEAD DEP BOUNDS FLOW TREATED AS SOURCE/SINK TERM
FACE 6 OF (J,I,K) =   68, 119,   3 IS NOT A BOUNDARY FACE.  HEAD DEP BOUNDS FLOW TREATED AS SOURCE/SINK TERM
FACE 6 OF (J,I,K) =   68, 119,   4 IS NOT A BOUNDARY FACE.  HEAD DEP BOUNDS FLOW TREATED AS SOURCE/SINK TERM
FACE 6 OF (J,I,K) =   68, 119,   5 IS NOT A BOUNDARY FACE.  HEAD DEP BOUNDS FLOW TREATED AS SOURCE/SINK TERM
FACE 6 OF (J,I,K) =   68, 119,   6 IS NOT A BOUNDARY FACE.  HEAD DEP BOUNDS FLOW TREATED AS SOURCE/SINK TERM
FACE 6 OF (J,I,K) =   68, 120,   2 IS NOT A BOUNDARY FACE.  HEAD DEP BOUNDS FLOW TREATED AS SOURCE/SINK TERM
FACE 6 OF (J,I,K) =   68, 120,   3 IS NOT A BOUNDARY FACE.  HEAD DEP BOUNDS FLOW TREATED AS SOURCE/SINK TERM
FACE 6 OF (J,I,K) =   68, 120,   4 IS NOT A BOUNDARY FACE.  HEAD DEP BOUNDS FLOW TREATED AS SOURCE/SINK TERM
FACE 6 OF (J,I,K) =   68, 120,   5 IS NOT A BOUNDARY FACE.  HEAD DEP BOUNDS FLOW TREATED AS SOURCE/SINK TERM
FACE 6 OF (J,I,K) =   68, 120,   6 IS NOT A BOUNDARY FACE.  HEAD DEP BOUNDS FLOW TREATED AS SOURCE/SINK TERM
FACE 6 OF (J,I,K) =   67, 120,   2 IS NOT A BOUNDARY FACE.  HEAD DEP BOUNDS FLOW TREATED AS SOURCE/SINK TERM
FACE 6 OF (J,I,K) =   67, 120,   3 IS NOT A BOUNDARY FACE.  HEAD DEP BOUNDS FLOW TREATED AS SOURCE/SINK TERM
FACE 6 OF (J,I,K) =   67, 120,   4 IS NOT A BOUNDARY FACE.  HEAD DEP BOUNDS FLOW TREATED AS SOURCE/SINK TERM
FACE 6 OF (J,I,K) =   67, 120,   5 IS NOT A BOUNDARY FACE.  HEAD DEP BOUNDS FLOW TREATED AS SOURCE/SINK TERM
FACE 6 OF (J,I,K) =   67, 120,   6 IS NOT A BOUNDARY FACE.  HEAD DEP BOUNDS FLOW TREATED AS SOURCE/SINK TERM
FACE 6 OF (J,I,K) =   66, 120,   2 IS NOT A BOUNDARY FACE.  HEAD DEP BOUNDS FLOW TREATED AS SOURCE/SINK TERM
FACE 6 OF (J,I,K) =   66, 120,   3 IS NOT A BOUNDARY FACE.  HEAD DEP BOUNDS FLOW TREATED AS SOURCE/SINK TERM
FACE 6 OF (J,I,K) =   66, 120,   4 IS NOT A BOUNDARY FACE.  HEAD DEP BOUNDS FLOW TREATED AS SOURCE/SINK TERM
FACE 6 OF (J,I,K) =   66, 120,   5 IS NOT A BOUNDARY FACE.  HEAD DEP BOUNDS FLOW TREATED AS SOURCE/SINK TERM
FACE 6 OF (J,I,K) =   66, 120,   6 IS NOT A BOUNDARY FACE.  HEAD DEP BOUNDS FLOW TREATED AS SOURCE/SINK TERM
FACE 6 OF (J,I,K) =   65, 120,   2 IS NOT A BOUNDARY FACE.  HEAD DEP BOUNDS FLOW TREATED AS SOURCE/SINK TERM
FACE 6 OF (J,I,K) =   65, 120,   3 IS NOT A BOUNDARY FACE.  HEAD DEP BOUNDS FLOW TREATED AS SOURCE/SINK TERM
FACE 6 OF (J,I,K) =   65, 120,   4 IS NOT A BOUNDARY FACE.  HEAD DEP BOUNDS FLOW TREATED AS SOURCE/SINK TERM
FACE 6 OF (J,I,K) =   65, 120,   5 IS NOT A BOUNDARY FACE.  HEAD DEP BOUNDS FLOW TREATED AS SOURCE/SINK TERM
FACE 6 OF (J,I,K) =   65, 120,   6 IS NOT A BOUNDARY FACE.  HEAD DEP BOUNDS FLOW TREATED AS SOURCE/SINK TERM
FACE 6 OF (J,I,K) =   64, 120,   2 IS NOT A BOUNDARY FACE.  HEAD DEP BOUNDS FLOW TREATED AS SOURCE/SINK TERM
FACE 6 OF (J,I,K) =   64, 120,   3 IS NOT A BOUNDARY FACE.  HEAD DEP BOUNDS FLOW TREATED AS SOURCE/SINK TERM
FACE 6 OF (J,I,K) =   64, 120,   4 IS NOT A BOUNDARY FACE.  HEAD DEP BOUNDS FLOW TREATED AS SOURCE/SINK TERM
FACE 6 OF (J,I,K) =   64, 120,   5 IS NOT A BOUNDARY FACE.  HEAD DEP BOUNDS FLOW TREATED AS SOURCE/SINK TERM
FACE 6 OF (J,I,K) =   64, 120,   6 IS NOT A BOUNDARY FACE.  HEAD DEP BOUNDS FLOW TREATED AS SOURCE/SINK TERM
FACE 6 OF (J,I,K) =   79, 120,   2 IS NOT A BOUNDARY FACE.  HEAD DEP BOUNDS FLOW TREATED AS SOURCE/SINK TERM
FACE 6 OF (J,I,K) =   79, 120,   3 IS NOT A BOUNDARY FACE.  HEAD DEP BOUNDS FLOW TREATED AS SOURCE/SINK TERM
FACE 6 OF (J,I,K) =   79, 120,   4 IS NOT A BOUNDARY FACE.  HEAD DEP BOUNDS FLOW TREATED AS SOURCE/SINK TERM
FACE 6 OF (J,I,K) =   79, 120,   5 IS NOT A BOUNDARY FACE.  HEAD DEP BOUNDS FLOW TREATED AS SOURCE/SINK TERM
FACE 6 OF (J,I,K) =   79, 120,   6 IS NOT A BOUNDARY FACE.  HEAD DEP BOUNDS FLOW TREATED AS SOURCE/SINK TERM
FACE 6 OF (J,I,K) =   78, 120,   2 IS NOT A BOUNDARY FACE.  HEAD DEP BOUNDS FLOW TREATED AS SOURCE/SINK TERM
FACE 6 OF (J,I,K) =   78, 120,   3 IS NOT A BOUNDARY FACE.  HEAD DEP BOUNDS FLOW TREATED AS SOURCE/SINK TERM
FACE 6 OF (J,I,K) =   78, 120,   4 IS NOT A BOUNDARY FACE.  HEAD DEP BOUNDS FLOW TREATED AS SOURCE/SINK TERM
FACE 6 OF (J,I,K) =   78, 120,   5 IS NOT A BOUNDARY FACE.  HEAD DEP BOUNDS FLOW TREATED AS SOURCE/SINK TERM
FACE 6 OF (J,I,K) =   78, 120,   6 IS NOT A BOUNDARY FACE.  HEAD DEP BOUNDS FLOW TREATED AS SOURCE/SINK TERM
FACE 6 OF (J,I,K) =   77, 120,   2 IS NOT A BOUNDARY FACE.  HEAD DEP BOUNDS FLOW TREATED AS SOURCE/SINK TERM
FACE 6 OF (J,I,K) =   77, 120,   3 IS NOT A BOUNDARY FACE.  HEAD DEP BOUNDS FLOW TREATED AS SOURCE/SINK TERM
FACE 6 OF (J,I,K) =   77, 120,   4 IS NOT A BOUNDARY FACE.  HEAD DEP BOUNDS FLOW TREATED AS SOURCE/SINK TERM
FACE 6 OF (J,I,K) =   77, 120,   5 IS NOT A BOUNDARY FACE.  HEAD DEP BOUNDS FLOW TREATED AS SOURCE/SINK TERM
FACE 6 OF (J,I,K) =   77, 120,   6 IS NOT A BOUNDARY FACE.  HEAD DEP BOUNDS FLOW TREATED AS SOURCE/SINK TERM
FACE 6 OF (J,I,K) =   76, 120,   2 IS NOT A BOUNDARY FACE.  HEAD DEP BOUNDS FLOW TREATED AS SOURCE/SINK TERM
FACE 6 OF (J,I,K) =   76, 120,   3 IS NOT A BOUNDARY FACE.  HEAD DEP BOUNDS FLOW TREATED AS SOURCE/SINK TERM
FACE 6 OF (J,I,K) =   76, 120,   4 IS NOT A BOUNDARY FACE.  HEAD DEP BOUNDS FLOW TREATED AS SOURCE/SINK TERM
FACE 6 OF (J,I,K) =   76, 120,   5 IS NOT A BOUNDARY FACE.  HEAD DEP BOUNDS FLOW TREATED AS SOURCE/SINK TERM
FACE 6 OF (J,I,K) =   76, 120,   6 IS NOT A BOUNDARY FACE.  HEAD DEP BOUNDS FLOW TREATED AS SOURCE/SINK TERM
FACE 6 OF (J,I,K) =   75, 120,   2 IS NOT A BOUNDARY FACE.  HEAD DEP BOUNDS FLOW TREATED AS SOURCE/SINK TERM
FACE 6 OF (J,I,K) =   75, 120,   3 IS NOT A BOUNDARY FACE.  HEAD DEP BOUNDS FLOW TREATED AS SOURCE/SINK TERM
FACE 6 OF (J,I,K) =   75, 120,   4 IS NOT A BOUNDARY FACE.  HEAD DEP BOUNDS FLOW TREATED AS SOURCE/SINK TERM
FACE 6 OF (J,I,K) =   75, 120,   5 IS NOT A BOUNDARY FACE.  HEAD DEP BOUNDS FLOW TREATED AS SOURCE/SINK TERM
FACE 6 OF (J,I,K) =   75, 120,   6 IS NOT A BOUNDARY FACE.  HEAD DEP BOUNDS FLOW TREATED AS SOURCE/SINK TERM
FACE 6 OF (J,I,K) =   74, 120,   2 IS NOT A BOUNDARY FACE.  HEAD DEP BOUNDS FLOW TREATED AS SOURCE/SINK TERM
FACE 6 OF (J,I,K) =   74, 120,   3 IS NOT A BOUNDARY FACE.  HEAD DEP BOUNDS FLOW TREATED AS SOURCE/SINK TERM
FACE 6 OF (J,I,K) =   74, 120,   4 IS NOT A BOUNDARY FACE.  HEAD DEP BOUNDS FLOW TREATED AS SOURCE/SINK TERM
FACE 6 OF (J,I,K) =   74, 120,   5 IS NOT A BOUNDARY FACE.  HEAD DEP BOUNDS FLOW TREATED AS SOURCE/SINK TERM
FACE 6 OF (J,I,K) =   74, 120,   6 IS NOT A BOUNDARY FACE.  HEAD DEP BOUNDS FLOW TREATED AS SOURCE/SINK TERM
FACE 6 OF (J,I,K) =   73, 120,   2 IS NOT A BOUNDARY FACE.  HEAD DEP BOUNDS FLOW TREATED AS SOURCE/SINK TERM
FACE 6 OF (J,I,K) =   73, 120,   3 IS NOT A BOUNDARY FACE.  HEAD DEP BOUNDS FLOW TREATED AS SOURCE/SINK TERM
FACE 6 OF (J,I,K) =   73, 120,   4 IS NOT A BOUNDARY FACE.  HEAD DEP BOUNDS FLOW TREATED AS SOURCE/SINK TERM
FACE 6 OF (J,I,K) =   73, 120,   5 IS NOT A BOUNDARY FACE.  HEAD DEP BOUNDS FLOW TREATED AS SOURCE/SINK TERM
FACE 6 OF (J,I,K) =   73, 120,   6 IS NOT A BOUNDARY FACE.  HEAD DEP BOUNDS FLOW TREATED AS SOURCE/SINK TERM
FACE 6 OF (J,I,K) =   73, 119,   2 IS NOT A BOUNDARY FACE.  HEAD DEP BOUNDS FLOW TREATED AS SOURCE/SINK TERM
FACE 6 OF (J,I,K) =   73, 119,   3 IS NOT A BOUNDARY FACE.  HEAD DEP BOUNDS FLOW TREATED AS SOURCE/SINK TERM
FACE 6 OF (J,I,K) =   73, 119,   4 IS NOT A BOUNDARY FACE.  HEAD DEP BOUNDS FLOW TREATED AS SOURCE/SINK TERM
FACE 6 OF (J,I,K) =   73, 119,   5 IS NOT A BOUNDARY FACE.  HEAD DEP BOUNDS FLOW TREATED AS SOURCE/SINK TERM
FACE 6 OF (J,I,K) =   73, 119,   6 IS NOT A BOUNDARY FACE.  HEAD DEP BOUNDS FLOW TREATED AS SOURCE/SINK TERM
FACE 6 OF (J,I,K) =   72, 119,   2 IS NOT A BOUNDARY FACE.  HEAD DEP BOUNDS FLOW TREATED AS SOURCE/SINK TERM
FACE 6 OF (J,I,K) =   72, 119,   3 IS NOT A BOUNDARY FACE.  HEAD DEP BOUNDS FLOW TREATED AS SOURCE/SINK TERM
FACE 6 OF (J,I,K) =   72, 119,   4 IS NOT A BOUNDARY FACE.  HEAD DEP BOUNDS FLOW TREATED AS SOURCE/SINK TERM
FACE 6 OF (J,I,K) =   72, 119,   5 IS NOT A BOUNDARY FACE.  HEAD DEP BOUNDS FLOW TREATED AS SOURCE/SINK TERM
FACE 6 OF (J,I,K) =   72, 119,   6 IS NOT A BOUNDARY FACE.  HEAD DEP BOUNDS FLOW TREATED AS SOURCE/SINK TERM
FACE 6 OF (J,I,K) =   71, 119,   2 IS NOT A BOUNDARY FACE.  HEAD DEP BOUNDS FLOW TREATED AS SOURCE/SINK TERM
FACE 6 OF (J,I,K) =   71, 119,   3 IS NOT A BOUNDARY FACE.  HEAD DEP BOUNDS FLOW TREATED AS SOURCE/SINK TERM
FACE 6 OF (J,I,K) =   71, 119,   4 IS NOT A BOUNDARY FACE.  HEAD DEP BOUNDS FLOW TREATED AS SOURCE/SINK TERM
FACE 6 OF (J,I,K) =   71, 119,   5 IS NOT A BOUNDARY FACE.  HEAD DEP BOUNDS FLOW TREATED AS SOURCE/SINK TERM
FACE 6 OF (J,I,K) =   71, 119,   6 IS NOT A BOUNDARY FACE.  HEAD DEP BOUNDS FLOW TREATED AS SOURCE/SINK TERM
FACE 6 OF (J,I,K) =   70, 119,   2 IS NOT A BOUNDARY FACE.  HEAD DEP BOUNDS FLOW TREATED AS SOURCE/SINK TERM
FACE 6 OF (J,I,K) =   70, 119,   3 IS NOT A BOUNDARY FACE.  HEAD DEP BOUNDS FLOW TREATED AS SOURCE/SINK TERM
FACE 6 OF (J,I,K) =   70, 119,   4 IS NOT A BOUNDARY FACE.  HEAD DEP BOUNDS FLOW TREATED AS SOURCE/SINK TERM
FACE 6 OF (J,I,K) =   70, 119,   5 IS NOT A BOUNDARY FACE.  HEAD DEP BOUNDS FLOW TREATED AS SOURCE/SINK TERM
FACE 6 OF (J,I,K) =   70, 119,   6 IS NOT A BOUNDARY FACE.  HEAD DEP BOUNDS FLOW TREATED AS SOURCE/SINK TERM
FACE 6 OF (J,I,K) =   87, 120,   2 IS NOT A BOUNDARY FACE.  HEAD DEP BOUNDS FLOW TREATED AS SOURCE/SINK TERM
FACE 6 OF (J,I,K) =   87, 120,   3 IS NOT A BOUNDARY FACE.  HEAD DEP BOUNDS FLOW TREATED AS SOURCE/SINK TERM
FACE 6 OF (J,I,K) =   87, 120,   4 IS NOT A BOUNDARY FACE.  HEAD DEP BOUNDS FLOW TREATED AS SOURCE/SINK TERM
FACE 6 OF (J,I,K) =   87, 120,   5 IS NOT A BOUNDARY FACE.  HEAD DEP BOUNDS FLOW TREATED AS SOURCE/SINK TERM
FACE 6 OF (J,I,K) =   87, 120,   6 IS NOT A BOUNDARY FACE.  HEAD DEP BOUNDS FLOW TREATED AS SOURCE/SINK TERM
FACE 6 OF (J,I,K) =   86, 120,   2 IS NOT A BOUNDARY FACE.  HEAD DEP BOUNDS FLOW TREATED AS SOURCE/SINK TERM
FACE 6 OF (J,I,K) =   86, 120,   3 IS NOT A BOUNDARY FACE.  HEAD DEP BOUNDS FLOW TREATED AS SOURCE/SINK TERM
FACE 6 OF (J,I,K) =   86, 120,   4 IS NOT A BOUNDARY FACE.  HEAD DEP BOUNDS FLOW TREATED AS SOURCE/SINK TERM
FACE 6 OF (J,I,K) =   86, 120,   5 IS NOT A BOUNDARY FACE.  HEAD DEP BOUNDS FLOW TREATED AS SOURCE/SINK TERM
FACE 6 OF (J,I,K) =   86, 120,   6 IS NOT A BOUNDARY FACE.  HEAD DEP BOUNDS FLOW TREATED AS SOURCE/SINK TERM
FACE 6 OF (J,I,K) =   85, 120,   2 IS NOT A BOUNDARY FACE.  HEAD DEP BOUNDS FLOW TREATED AS SOURCE/SINK TERM
FACE 6 OF (J,I,K) =   85, 120,   3 IS NOT A BOUNDARY FACE.  HEAD DEP BOUNDS FLOW TREATED AS SOURCE/SINK TERM
FACE 6 OF (J,I,K) =   85, 120,   4 IS NOT A BOUNDARY FACE.  HEAD DEP BOUNDS FLOW TREATED AS SOURCE/SINK TERM
FACE 6 OF (J,I,K) =   85, 120,   5 IS NOT A BOUNDARY FACE.  HEAD DEP BOUNDS FLOW TREATED AS SOURCE/SINK TERM
FACE 6 OF (J,I,K) =   85, 120,   6 IS NOT A BOUNDARY FACE.  HEAD DEP BOUNDS FLOW TREATED AS SOURCE/SINK TERM
FACE 6 OF (J,I,K) =   84, 120,   2 IS NOT A BOUNDARY FACE.  HEAD DEP BOUNDS FLOW TREATED AS SOURCE/SINK TERM
FACE 6 OF (J,I,K) =   84, 120,   3 IS NOT A BOUNDARY FACE.  HEAD DEP BOUNDS FLOW TREATED AS SOURCE/SINK TERM
FACE 6 OF (J,I,K) =   84, 120,   4 IS NOT A BOUNDARY FACE.  HEAD DEP BOUNDS FLOW TREATED AS SOURCE/SINK TERM
FACE 6 OF (J,I,K) =   84, 120,   5 IS NOT A BOUNDARY FACE.  HEAD DEP BOUNDS FLOW TREATED AS SOURCE/SINK TERM
FACE 6 OF (J,I,K) =   84, 120,   6 IS NOT A BOUNDARY FACE.  HEAD DEP BOUNDS FLOW TREATED AS SOURCE/SINK TERM
FACE 6 OF (J,I,K) =   83, 120,   2 IS NOT A BOUNDARY FACE.  HEAD DEP BOUNDS FLOW TREATED AS SOURCE/SINK TERM
FACE 6 OF (J,I,K) =   83, 120,   3 IS NOT A BOUNDARY FACE.  HEAD DEP BOUNDS FLOW TREATED AS SOURCE/SINK TERM
FACE 6 OF (J,I,K) =   83, 120,   4 IS NOT A BOUNDARY FACE.  HEAD DEP BOUNDS FLOW TREATED AS SOURCE/SINK TERM
FACE 6 OF (J,I,K) =   83, 120,   5 IS NOT A BOUNDARY FACE.  HEAD DEP BOUNDS FLOW TREATED AS SOURCE/SINK TERM
FACE 6 OF (J,I,K) =   83, 120,   6 IS NOT A BOUNDARY FACE.  HEAD DEP BOUNDS FLOW TREATED AS SOURCE/SINK TERM
FACE 6 OF (J,I,K) =   82, 120,   2 IS NOT A BOUNDARY FACE.  HEAD DEP BOUNDS FLOW TREATED AS SOURCE/SINK TERM
FACE 6 OF (J,I,K) =   82, 120,   3 IS NOT A BOUNDARY FACE.  HEAD DEP BOUNDS FLOW TREATED AS SOURCE/SINK TERM
FACE 6 OF (J,I,K) =   82, 120,   4 IS NOT A BOUNDARY FACE.  HEAD DEP BOUNDS FLOW TREATED AS SOURCE/SINK TERM
FACE 6 OF (J,I,K) =   82, 120,   5 IS NOT A BOUNDARY FACE.  HEAD DEP BOUNDS FLOW TREATED AS SOURCE/SINK TERM
FACE 6 OF (J,I,K) =   82, 120,   6 IS NOT A BOUNDARY FACE.  HEAD DEP BOUNDS FLOW TREATED AS SOURCE/SINK TERM
FACE 6 OF (J,I,K) =   81, 120,   2 IS NOT A BOUNDARY FACE.  HEAD DEP BOUNDS FLOW TREATED AS SOURCE/SINK TERM
FACE 6 OF (J,I,K) =   81, 120,   3 IS NOT A BOUNDARY FACE.  HEAD DEP BOUNDS FLOW TREATED AS SOURCE/SINK TERM
FACE 6 OF (J,I,K) =   81, 120,   4 IS NOT A BOUNDARY FACE.  HEAD DEP BOUNDS FLOW TREATED AS SOURCE/SINK TERM
FACE 6 OF (J,I,K) =   81, 120,   5 IS NOT A BOUNDARY FACE.  HEAD DEP BOUNDS FLOW TREATED AS SOURCE/SINK TERM
FACE 6 OF (J,I,K) =   81, 120,   6 IS NOT A BOUNDARY FACE.  HEAD DEP BOUNDS FLOW TREATED AS SOURCE/SINK TERM
FACE 6 OF (J,I,K) =   80, 120,   2 IS NOT A BOUNDARY FACE.  HEAD DEP BOUNDS FLOW TREATED AS SOURCE/SINK TERM
FACE 6 OF (J,I,K) =   80, 120,   3 IS NOT A BOUNDARY FACE.  HEAD DEP BOUNDS FLOW TREATED AS SOURCE/SINK TERM
FACE 6 OF (J,I,K) =   80, 120,   4 IS NOT A BOUNDARY FACE.  HEAD DEP BOUNDS FLOW TREATED AS SOURCE/SINK TERM
FACE 6 OF (J,I,K) =   80, 120,   5 IS NOT A BOUNDARY FACE.  HEAD DEP BOUNDS FLOW TREATED AS SOURCE/SINK TERM
FACE 6 OF (J,I,K) =   80, 120,   6 IS NOT A BOUNDARY FACE.  HEAD DEP BOUNDS FLOW TREATED AS SOURCE/SINK TERM
FACE 6 OF (J,I,K) =   79, 120,   2 IS NOT A BOUNDARY FACE.  HEAD DEP BOUNDS FLOW TREATED AS SOURCE/SINK TERM
FACE 6 OF (J,I,K) =   79, 120,   3 IS NOT A BOUNDARY FACE.  HEAD DEP BOUNDS FLOW TREATED AS SOURCE/SINK TERM
FACE 6 OF (J,I,K) =   79, 120,   4 IS NOT A BOUNDARY FACE.  HEAD DEP BOUNDS FLOW TREATED AS SOURCE/SINK TERM
FACE 6 OF (J,I,K) =   79, 120,   5 IS NOT A BOUNDARY FACE.  HEAD DEP BOUNDS FLOW TREATED AS SOURCE/SINK TERM
FACE 6 OF (J,I,K) =   79, 120,   6 IS NOT A BOUNDARY FACE.  HEAD DEP BOUNDS FLOW TREATED AS SOURCE/SINK TERM
FACE 6 OF (J,I,K) =   93, 121,   2 IS NOT A BOUNDARY FACE.  HEAD DEP BOUNDS FLOW TREATED AS SOURCE/SINK TERM
FACE 6 OF (J,I,K) =   93, 121,   3 IS NOT A BOUNDARY FACE.  HEAD DEP BOUNDS FLOW TREATED AS SOURCE/SINK TERM
FACE 6 OF (J,I,K) =   93, 121,   4 IS NOT A BOUNDARY FACE.  HEAD DEP BOUNDS FLOW TREATED AS SOURCE/SINK TERM
FACE 6 OF (J,I,K) =   93, 121,   5 IS NOT A BOUNDARY FACE.  HEAD DEP BOUNDS FLOW TREATED AS SOURCE/SINK TERM
FACE 6 OF (J,I,K) =   93, 121,   6 IS NOT A BOUNDARY FACE.  HEAD DEP BOUNDS FLOW TREATED AS SOURCE/SINK TERM
FACE 6 OF (J,I,K) =   92, 121,   2 IS NOT A BOUNDARY FACE.  HEAD DEP BOUNDS FLOW TREATED AS SOURCE/SINK TERM
FACE 6 OF (J,I,K) =   92, 121,   3 IS NOT A BOUNDARY FACE.  HEAD DEP BOUNDS FLOW TREATED AS SOURCE/SINK TERM
FACE 6 OF (J,I,K) =   92, 121,   4 IS NOT A BOUNDARY FACE.  HEAD DEP BOUNDS FLOW TREATED AS SOURCE/SINK TERM
FACE 6 OF (J,I,K) =   92, 121,   5 IS NOT A BOUNDARY FACE.  HEAD DEP BOUNDS FLOW TREATED AS SOURCE/SINK TERM
FACE 6 OF (J,I,K) =   92, 121,   6 IS NOT A BOUNDARY FACE.  HEAD DEP BOUNDS FLOW TREATED AS SOURCE/SINK TERM
FACE 6 OF (J,I,K) =   91, 121,   2 IS NOT A BOUNDARY FACE.  HEAD DEP BOUNDS FLOW TREATED AS SOURCE/SINK TERM
FACE 6 OF (J,I,K) =   91, 121,   3 IS NOT A BOUNDARY FACE.  HEAD DEP BOUNDS FLOW TREATED AS SOURCE/SINK TERM
FACE 6 OF (J,I,K) =   91, 121,   4 IS NOT A BOUNDARY FACE.  HEAD DEP BOUNDS FLOW TREATED AS SOURCE/SINK TERM
FACE 6 OF (J,I,K) =   91, 121,   5 IS NOT A BOUNDARY FACE.  HEAD DEP BOUNDS FLOW TREATED AS SOURCE/SINK TERM
FACE 6 OF (J,I,K) =   91, 121,   6 IS NOT A BOUNDARY FACE.  HEAD DEP BOUNDS FLOW TREATED AS SOURCE/SINK TERM
FACE 6 OF (J,I,K) =   90, 121,   2 IS NOT A BOUNDARY FACE.  HEAD DEP BOUNDS FLOW TREATED AS SOURCE/SINK TERM
FACE 6 OF (J,I,K) =   90, 121,   3 IS NOT A BOUNDARY FACE.  HEAD DEP BOUNDS FLOW TREATED AS SOURCE/SINK TERM
FACE 6 OF (J,I,K) =   90, 121,   4 IS NOT A BOUNDARY FACE.  HEAD DEP BOUNDS FLOW TREATED AS SOURCE/SINK TERM
FACE 6 OF (J,I,K) =   90, 121,   5 IS NOT A BOUNDARY FACE.  HEAD DEP BOUNDS FLOW TREATED AS SOURCE/SINK TERM
FACE 6 OF (J,I,K) =   90, 121,   6 IS NOT A BOUNDARY FACE.  HEAD DEP BOUNDS FLOW TREATED AS SOURCE/SINK TERM
FACE 6 OF (J,I,K) =   89, 121,   2 IS NOT A BOUNDARY FACE.  HEAD DEP BOUNDS FLOW TREATED AS SOURCE/SINK TERM
FACE 6 OF (J,I,K) =   89, 121,   3 IS NOT A BOUNDARY FACE.  HEAD DEP BOUNDS FLOW TREATED AS SOURCE/SINK TERM
FACE 6 OF (J,I,K) =   89, 121,   4 IS NOT A BOUNDARY FACE.  HEAD DEP BOUNDS FLOW TREATED AS SOURCE/SINK TERM
FACE 6 OF (J,I,K) =   89, 121,   5 IS NOT A BOUNDARY FACE.  HEAD DEP BOUNDS FLOW TREATED AS SOURCE/SINK TERM
FACE 6 OF (J,I,K) =   89, 121,   6 IS NOT A BOUNDARY FACE.  HEAD DEP BOUNDS FLOW TREATED AS SOURCE/SINK TERM
FACE 6 OF (J,I,K) =   88, 121,   2 IS NOT A BOUNDARY FACE.  HEAD DEP BOUNDS FLOW TREATED AS SOURCE/SINK TERM
FACE 6 OF (J,I,K) =   88, 121,   3 IS NOT A BOUNDARY FACE.  HEAD DEP BOUNDS FLOW TREATED AS SOURCE/SINK TERM
FACE 6 OF (J,I,K) =   88, 121,   4 IS NOT A BOUNDARY FACE.  HEAD DEP BOUNDS FLOW TREATED AS SOURCE/SINK TERM
FACE 6 OF (J,I,K) =   88, 121,   5 IS NOT A BOUNDARY FACE.  HEAD DEP BOUNDS FLOW TREATED AS SOURCE/SINK TERM
FACE 6 OF (J,I,K) =   88, 121,   6 IS NOT A BOUNDARY FACE.  HEAD DEP BOUNDS FLOW TREATED AS SOURCE/SINK TERM
FACE 6 OF (J,I,K) =   88, 120,   2 IS NOT A BOUNDARY FACE.  HEAD DEP BOUNDS FLOW TREATED AS SOURCE/SINK TERM
FACE 6 OF (J,I,K) =   88, 120,   3 IS NOT A BOUNDARY FACE.  HEAD DEP BOUNDS FLOW TREATED AS SOURCE/SINK TERM
FACE 6 OF (J,I,K) =   88, 120,   4 IS NOT A BOUNDARY FACE.  HEAD DEP BOUNDS FLOW TREATED AS SOURCE/SINK TERM
FACE 6 OF (J,I,K) =   88, 120,   5 IS NOT A BOUNDARY FACE.  HEAD DEP BOUNDS FLOW TREATED AS SOURCE/SINK TERM
FACE 6 OF (J,I,K) =   88, 120,   6 IS NOT A BOUNDARY FACE.  HEAD DEP BOUNDS FLOW TREATED AS SOURCE/SINK TERM
FACE 6 OF (J,I,K) =   87, 120,   2 IS NOT A BOUNDARY FACE.  HEAD DEP BOUNDS FLOW TREATED AS SOURCE/SINK TERM
FACE 6 OF (J,I,K) =   87, 120,   3 IS NOT A BOUNDARY FACE.  HEAD DEP BOUNDS FLOW TREATED AS SOURCE/SINK TERM
FACE 6 OF (J,I,K) =   87, 120,   4 IS NOT A BOUNDARY FACE.  HEAD DEP BOUNDS FLOW TREATED AS SOURCE/SINK TERM
FACE 6 OF (J,I,K) =   87, 120,   5 IS NOT A BOUNDARY FACE.  HEAD DEP BOUNDS FLOW TREATED AS SOURCE/SINK TERM
FACE 6 OF (J,I,K) =   87, 120,   6 IS NOT A BOUNDARY FACE.  HEAD DEP BOUNDS FLOW TREATED AS SOURCE/SINK TERM
FACE 6 OF (J,I,K) =  102, 121,   2 IS NOT A BOUNDARY FACE.  HEAD DEP BOUNDS FLOW TREATED AS SOURCE/SINK TERM
FACE 6 OF (J,I,K) =  102, 121,   3 IS NOT A BOUNDARY FACE.  HEAD DEP BOUNDS FLOW TREATED AS SOURCE/SINK TERM
FACE 6 OF (J,I,K) =  102, 121,   4 IS NOT A BOUNDARY FACE.  HEAD DEP BOUNDS FLOW TREATED AS SOURCE/SINK TERM
FACE 6 OF (J,I,K) =  102, 121,   5 IS NOT A BOUNDARY FACE.  HEAD DEP BOUNDS FLOW TREATED AS SOURCE/SINK TERM
FACE 6 OF (J,I,K) =  102, 121,   6 IS NOT A BOUNDARY FACE.  HEAD DEP BOUNDS FLOW TREATED AS SOURCE/SINK TERM
FACE 6 OF (J,I,K) =  101, 121,   2 IS NOT A BOUNDARY FACE.  HEAD DEP BOUNDS FLOW TREATED AS SOURCE/SINK TERM
FACE 6 OF (J,I,K) =  101, 121,   3 IS NOT A BOUNDARY FACE.  HEAD DEP BOUNDS FLOW TREATED AS SOURCE/SINK TERM
FACE 6 OF (J,I,K) =  101, 121,   4 IS NOT A BOUNDARY FACE.  HEAD DEP BOUNDS FLOW TREATED AS SOURCE/SINK TERM
FACE 6 OF (J,I,K) =  101, 121,   5 IS NOT A BOUNDARY FACE.  HEAD DEP BOUNDS FLOW TREATED AS SOURCE/SINK TERM
FACE 6 OF (J,I,K) =  101, 121,   6 IS NOT A BOUNDARY FACE.  HEAD DEP BOUNDS FLOW TREATED AS SOURCE/SINK TERM
FACE 6 OF (J,I,K) =  100, 121,   2 IS NOT A BOUNDARY FACE.  HEAD DEP BOUNDS FLOW TREATED AS SOURCE/SINK TERM
FACE 6 OF (J,I,K) =  100, 121,   3 IS NOT A BOUNDARY FACE.  HEAD DEP BOUNDS FLOW TREATED AS SOURCE/SINK TERM
FACE 6 OF (J,I,K) =  100, 121,   4 IS NOT A BOUNDARY FACE.  HEAD DEP BOUNDS FLOW TREATED AS SOURCE/SINK TERM
FACE 6 OF (J,I,K) =  100, 121,   5 IS NOT A BOUNDARY FACE.  HEAD DEP BOUNDS FLOW TREATED AS SOURCE/SINK TERM
FACE 6 OF (J,I,K) =  100, 121,   6 IS NOT A BOUNDARY FACE.  HEAD DEP BOUNDS FLOW TREATED AS SOURCE/SINK TERM
FACE 6 OF (J,I,K) =   99, 121,   2 IS NOT A BOUNDARY FACE.  HEAD DEP BOUNDS FLOW TREATED AS SOURCE/SINK TERM
FACE 6 OF (J,I,K) =   99, 121,   3 IS NOT A BOUNDARY FACE.  HEAD DEP BOUNDS FLOW TREATED AS SOURCE/SINK TERM
FACE 6 OF (J,I,K) =   99, 121,   4 IS NOT A BOUNDARY FACE.  HEAD DEP BOUNDS FLOW TREATED AS SOURCE/SINK TERM
FACE 6 OF (J,I,K) =   99, 121,   5 IS NOT A BOUNDARY FACE.  HEAD DEP BOUNDS FLOW TREATED AS SOURCE/SINK TERM
FACE 6 OF (J,I,K) =   99, 121,   6 IS NOT A BOUNDARY FACE.  HEAD DEP BOUNDS FLOW TREATED AS SOURCE/SINK TERM
FACE 6 OF (J,I,K) =   98, 121,   2 IS NOT A BOUNDARY FACE.  HEAD DEP BOUNDS FLOW TREATED AS SOURCE/SINK TERM
FACE 6 OF (J,I,K) =   98, 121,   3 IS NOT A BOUNDARY FACE.  HEAD DEP BOUNDS FLOW TREATED AS SOURCE/SINK TERM
FACE 6 OF (J,I,K) =   98, 121,   4 IS NOT A BOUNDARY FACE.  HEAD DEP BOUNDS FLOW TREATED AS SOURCE/SINK TERM
FACE 6 OF (J,I,K) =   98, 121,   5 IS NOT A BOUNDARY FACE.  HEAD DEP BOUNDS FLOW TREATED AS SOURCE/SINK TERM
FACE 6 OF (J,I,K) =   98, 121,   6 IS NOT A BOUNDARY FACE.  HEAD DEP BOUNDS FLOW TREATED AS SOURCE/SINK TERM
FACE 6 OF (J,I,K) =   97, 121,   2 IS NOT A BOUNDARY FACE.  HEAD DEP BOUNDS FLOW TREATED AS SOURCE/SINK TERM
FACE 6 OF (J,I,K) =   97, 121,   3 IS NOT A BOUNDARY FACE.  HEAD DEP BOUNDS FLOW TREATED AS SOURCE/SINK TERM
FACE 6 OF (J,I,K) =   97, 121,   4 IS NOT A BOUNDARY FACE.  HEAD DEP BOUNDS FLOW TREATED AS SOURCE/SINK TERM
FACE 6 OF (J,I,K) =   97, 121,   5 IS NOT A BOUNDARY FACE.  HEAD DEP BOUNDS FLOW TREATED AS SOURCE/SINK TERM
FACE 6 OF (J,I,K) =   97, 121,   6 IS NOT A BOUNDARY FACE.  HEAD DEP BOUNDS FLOW TREATED AS SOURCE/SINK TERM
FACE 6 OF (J,I,K) =   96, 121,   2 IS NOT A BOUNDARY FACE.  HEAD DEP BOUNDS FLOW TREATED AS SOURCE/SINK TERM
FACE 6 OF (J,I,K) =   96, 121,   3 IS NOT A BOUNDARY FACE.  HEAD DEP BOUNDS FLOW TREATED AS SOURCE/SINK TERM
FACE 6 OF (J,I,K) =   96, 121,   4 IS NOT A BOUNDARY FACE.  HEAD DEP BOUNDS FLOW TREATED AS SOURCE/SINK TERM
FACE 6 OF (J,I,K) =   96, 121,   5 IS NOT A BOUNDARY FACE.  HEAD DEP BOUNDS FLOW TREATED AS SOURCE/SINK TERM
FACE 6 OF (J,I,K) =   96, 121,   6 IS NOT A BOUNDARY FACE.  HEAD DEP BOUNDS FLOW TREATED AS SOURCE/SINK TERM
FACE 6 OF (J,I,K) =   95, 121,   2 IS NOT A BOUNDARY FACE.  HEAD DEP BOUNDS FLOW TREATED AS SOURCE/SINK TERM
FACE 6 OF (J,I,K) =   95, 121,   3 IS NOT A BOUNDARY FACE.  HEAD DEP BOUNDS FLOW TREATED AS SOURCE/SINK TERM
FACE 6 OF (J,I,K) =   95, 121,   4 IS NOT A BOUNDARY FACE.  HEAD DEP BOUNDS FLOW TREATED AS SOURCE/SINK TERM
FACE 6 OF (J,I,K) =   95, 121,   5 IS NOT A BOUNDARY FACE.  HEAD DEP BOUNDS FLOW TREATED AS SOURCE/SINK TERM
FACE 6 OF (J,I,K) =   95, 121,   6 IS NOT A BOUNDARY FACE.  HEAD DEP BOUNDS FLOW TREATED AS SOURCE/SINK TERM
FACE 6 OF (J,I,K) =   94, 121,   2 IS NOT A BOUNDARY FACE.  HEAD DEP BOUNDS FLOW TREATED AS SOURCE/SINK TERM
FACE 6 OF (J,I,K) =   94, 121,   3 IS NOT A BOUNDARY FACE.  HEAD DEP BOUNDS FLOW TREATED AS SOURCE/SINK TERM
FACE 6 OF (J,I,K) =   94, 121,   4 IS NOT A BOUNDARY FACE.  HEAD DEP BOUNDS FLOW TREATED AS SOURCE/SINK TERM
FACE 6 OF (J,I,K) =   94, 121,   5 IS NOT A BOUNDARY FACE.  HEAD DEP BOUNDS FLOW TREATED AS SOURCE/SINK TERM
FACE 6 OF (J,I,K) =   94, 121,   6 IS NOT A BOUNDARY FACE.  HEAD DEP BOUNDS FLOW TREATED AS SOURCE/SINK TERM
FACE 6 OF (J,I,K) =   93, 121,   2 IS NOT A BOUNDARY FACE.  HEAD DEP BOUNDS FLOW TREATED AS SOURCE/SINK TERM
FACE 6 OF (J,I,K) =   93, 121,   3 IS NOT A BOUNDARY FACE.  HEAD DEP BOUNDS FLOW TREATED AS SOURCE/SINK TERM
FACE 6 OF (J,I,K) =   93, 121,   4 IS NOT A BOUNDARY FACE.  HEAD DEP BOUNDS FLOW TREATED AS SOURCE/SINK TERM
FACE 6 OF (J,I,K) =   93, 121,   5 IS NOT A BOUNDARY FACE.  HEAD DEP BOUNDS FLOW TREATED AS SOURCE/SINK TERM
FACE 6 OF (J,I,K) =   93, 121,   6 IS NOT A BOUNDARY FACE.  HEAD DEP BOUNDS FLOW TREATED AS SOURCE/SINK TERM
 Reading         RECHARGE for Period    1   Time Step    1
FACE 6 OF (J,I,K) =   82,  70,   2 IS NOT A BOUNDARY FACE.         RECHARGE FLOW TREATED AS SOURCE/SINK TERM
FACE 6 OF (J,I,K) =   83,  70,   2 IS NOT A BOUNDARY FACE.         RECHARGE FLOW TREATED AS SOURCE/SINK TERM
FACE 6 OF (J,I,K) =   80,  71,   2 IS NOT A BOUNDARY FACE.         RECHARGE FLOW TREATED AS SOURCE/SINK TERM
FACE 6 OF (J,I,K) =   81,  71,   2 IS NOT A BOUNDARY FACE.         RECHARGE FLOW TREATED AS SOURCE/SINK TERM
FACE 6 OF (J,I,K) =   82,  71,   2 IS NOT A BOUNDARY FACE.         RECHARGE FLOW TREATED AS SOURCE/SINK TERM
FACE 6 OF (J,I,K) =   83,  71,   2 IS NOT A BOUNDARY FACE.         RECHARGE FLOW TREATED AS SOURCE/SINK TERM
FACE 6 OF (J,I,K) =   84,  71,   2 IS NOT A BOUNDARY FACE.         RECHARGE FLOW TREATED AS SOURCE/SINK TERM
FACE 6 OF (J,I,K) =   85,  71,   2 IS NOT A BOUNDARY FACE.         RECHARGE FLOW TREATED AS SOURCE/SINK TERM
FACE 6 OF (J,I,K) =   79,  72,   2 IS NOT A BOUNDARY FACE.         RECHARGE FLOW TREATED AS SOURCE/SINK TERM
FACE 6 OF (J,I,K) =   80,  72,   2 IS NOT A BOUNDARY FACE.         RECHARGE FLOW TREATED AS SOURCE/SINK TERM
FACE 6 OF (J,I,K) =   81,  72,   2 IS NOT A BOUNDARY FACE.         RECHARGE FLOW TREATED AS SOURCE/SINK TERM
FACE 6 OF (J,I,K) =   82,  72,   2 IS NOT A BOUNDARY FACE.         RECHARGE FLOW TREATED AS SOURCE/SINK TERM
FACE 6 OF (J,I,K) =   83,  72,   2 IS NOT A BOUNDARY FACE.         RECHARGE FLOW TREATED AS SOURCE/SINK TERM
FACE 6 OF (J,I,K) =   84,  72,   2 IS NOT A BOUNDARY FACE.         RECHARGE FLOW TREATED AS SOURCE/SINK TERM
FACE 6 OF (J,I,K) =   85,  72,   2 IS NOT A BOUNDARY FACE.         RECHARGE FLOW TREATED AS SOURCE/SINK TERM
FACE 6 OF (J,I,K) =   86,  72,   2 IS NOT A BOUNDARY FACE.         RECHARGE FLOW TREATED AS SOURCE/SINK TERM
FACE 6 OF (J,I,K) =   79,  73,   2 IS NOT A BOUNDARY FACE.         RECHARGE FLOW TREATED AS SOURCE/SINK TERM
FACE 6 OF (J,I,K) =   80,  73,   2 IS NOT A BOUNDARY FACE.         RECHARGE FLOW TREATED AS SOURCE/SINK TERM
FACE 6 OF (J,I,K) =   81,  73,   2 IS NOT A BOUNDARY FACE.         RECHARGE FLOW TREATED AS SOURCE/SINK TERM
FACE 6 OF (J,I,K) =   82,  73,   2 IS NOT A BOUNDARY FACE.         RECHARGE FLOW TREATED AS SOURCE/SINK TERM
FACE 6 OF (J,I,K) =   83,  73,   2 IS NOT A BOUNDARY FACE.         RECHARGE FLOW TREATED AS SOURCE/SINK TERM
FACE 6 OF (J,I,K) =   84,  73,   2 IS NOT A BOUNDARY FACE.         RECHARGE FLOW TREATED AS SOURCE/SINK TERM
FACE 6 OF (J,I,K) =   85,  73,   2 IS NOT A BOUNDARY FACE.         RECHARGE FLOW TREATED AS SOURCE/SINK TERM
FACE 6 OF (J,I,K) =   86,  73,   2 IS NOT A BOUNDARY FACE.         RECHARGE FLOW TREATED AS SOURCE/SINK TERM
FACE 6 OF (J,I,K) =   78,  74,   2 IS NOT A BOUNDARY FACE.         RECHARGE FLOW TREATED AS SOURCE/SINK TERM
FACE 6 OF (J,I,K) =   79,  74,   2 IS NOT A BOUNDARY FACE.         RECHARGE FLOW TREATED AS SOURCE/SINK TERM
FACE 6 OF (J,I,K) =   80,  74,   2 IS NOT A BOUNDARY FACE.         RECHARGE FLOW TREATED AS SOURCE/SINK TERM
FACE 6 OF (J,I,K) =   81,  74,   2 IS NOT A BOUNDARY FACE.         RECHARGE FLOW TREATED AS SOURCE/SINK TERM
FACE 6 OF (J,I,K) =   82,  74,   2 IS NOT A BOUNDARY FACE.         RECHARGE FLOW TREATED AS SOURCE/SINK TERM
FACE 6 OF (J,I,K) =   83,  74,   2 IS NOT A BOUNDARY FACE.         RECHARGE FLOW TREATED AS SOURCE/SINK TERM
FACE 6 OF (J,I,K) =   84,  74,   2 IS NOT A BOUNDARY FACE.         RECHARGE FLOW TREATED AS SOURCE/SINK TERM
FACE 6 OF (J,I,K) =   85,  74,   2 IS NOT A BOUNDARY FACE.         RECHARGE FLOW TREATED AS SOURCE/SINK TERM
FACE 6 OF (J,I,K) =   86,  74,   2 IS NOT A BOUNDARY FACE.         RECHARGE FLOW TREATED AS SOURCE/SINK TERM
FACE 6 OF (J,I,K) =   96,  74,   2 IS NOT A BOUNDARY FACE.         RECHARGE FLOW TREATED AS SOURCE/SINK TERM
FACE 6 OF (J,I,K) =   97,  74,   2 IS NOT A BOUNDARY FACE.         RECHARGE FLOW TREATED AS SOURCE/SINK TERM
FACE 6 OF (J,I,K) =   78,  75,   2 IS NOT A BOUNDARY FACE.         RECHARGE FLOW TREATED AS SOURCE/SINK TERM
FACE 6 OF (J,I,K) =   79,  75,   2 IS NOT A BOUNDARY FACE.         RECHARGE FLOW TREATED AS SOURCE/SINK TERM
FACE 6 OF (J,I,K) =   80,  75,   2 IS NOT A BOUNDARY FACE.         RECHARGE FLOW TREATED AS SOURCE/SINK TERM
FACE 6 OF (J,I,K) =   81,  75,   2 IS NOT A BOUNDARY FACE.         RECHARGE FLOW TREATED AS SOURCE/SINK TERM
FACE 6 OF (J,I,K) =   82,  75,   2 IS NOT A BOUNDARY FACE.         RECHARGE FLOW TREATED AS SOURCE/SINK TERM
FACE 6 OF (J,I,K) =   83,  75,   2 IS NOT A BOUNDARY FACE.         RECHARGE FLOW TREATED AS SOURCE/SINK TERM
FACE 6 OF (J,I,K) =   84,  75,   2 IS NOT A BOUNDARY FACE.         RECHARGE FLOW TREATED AS SOURCE/SINK TERM
FACE 6 OF (J,I,K) =   85,  75,   2 IS NOT A BOUNDARY FACE.         RECHARGE FLOW TREATED AS SOURCE/SINK TERM
FACE 6 OF (J,I,K) =   86,  75,   2 IS NOT A BOUNDARY FACE.         RECHARGE FLOW TREATED AS SOURCE/SINK TERM
FACE 6 OF (J,I,K) =   95,  75,   2 IS NOT A BOUNDARY FACE.         RECHARGE FLOW TREATED AS SOURCE/SINK TERM
FACE 6 OF (J,I,K) =   96,  75,   2 IS NOT A BOUNDARY FACE.         RECHARGE FLOW TREATED AS SOURCE/SINK TERM
FACE 6 OF (J,I,K) =   97,  75,   2 IS NOT A BOUNDARY FACE.         RECHARGE FLOW TREATED AS SOURCE/SINK TERM
FACE 6 OF (J,I,K) =   78,  76,   2 IS NOT A BOUNDARY FACE.         RECHARGE FLOW TREATED AS SOURCE/SINK TERM
FACE 6 OF (J,I,K) =   79,  76,   2 IS NOT A BOUNDARY FACE.         RECHARGE FLOW TREATED AS SOURCE/SINK TERM
FACE 6 OF (J,I,K) =   80,  76,   2 IS NOT A BOUNDARY FACE.         RECHARGE FLOW TREATED AS SOURCE/SINK TERM
FACE 6 OF (J,I,K) =   81,  76,   2 IS NOT A BOUNDARY FACE.         RECHARGE FLOW TREATED AS SOURCE/SINK TERM
FACE 6 OF (J,I,K) =   82,  76,   2 IS NOT A BOUNDARY FACE.         RECHARGE FLOW TREATED AS SOURCE/SINK TERM
FACE 6 OF (J,I,K) =   83,  76,   2 IS NOT A BOUNDARY FACE.         RECHARGE FLOW TREATED AS SOURCE/SINK TERM
FACE 6 OF (J,I,K) =   84,  76,   2 IS NOT A BOUNDARY FACE.         RECHARGE FLOW TREATED AS SOURCE/SINK TERM
FACE 6 OF (J,I,K) =   85,  76,   2 IS NOT A BOUNDARY FACE.         RECHARGE FLOW TREATED AS SOURCE/SINK TERM
FACE 6 OF (J,I,K) =   86,  76,   2 IS NOT A BOUNDARY FACE.         RECHARGE FLOW TREATED AS SOURCE/SINK TERM
FACE 6 OF (J,I,K) =   92,  76,   2 IS NOT A BOUNDARY FACE.         RECHARGE FLOW TREATED AS SOURCE/SINK TERM
FACE 6 OF (J,I,K) =   93,  76,   2 IS NOT A BOUNDARY FACE.         RECHARGE FLOW TREATED AS SOURCE/SINK TERM
FACE 6 OF (J,I,K) =   94,  76,   2 IS NOT A BOUNDARY FACE.         RECHARGE FLOW TREATED AS SOURCE/SINK TERM
FACE 6 OF (J,I,K) =   95,  76,   2 IS NOT A BOUNDARY FACE.         RECHARGE FLOW TREATED AS SOURCE/SINK TERM
FACE 6 OF (J,I,K) =   96,  76,   2 IS NOT A BOUNDARY FACE.         RECHARGE FLOW TREATED AS SOURCE/SINK TERM
FACE 6 OF (J,I,K) =   97,  76,   2 IS NOT A BOUNDARY FACE.         RECHARGE FLOW TREATED AS SOURCE/SINK TERM
FACE 6 OF (J,I,K) =   98,  76,   2 IS NOT A BOUNDARY FACE.         RECHARGE FLOW TREATED AS SOURCE/SINK TERM
FACE 6 OF (J,I,K) =   78,  77,   2 IS NOT A BOUNDARY FACE.         RECHARGE FLOW TREATED AS SOURCE/SINK TERM
FACE 6 OF (J,I,K) =   79,  77,   2 IS NOT A BOUNDARY FACE.         RECHARGE FLOW TREATED AS SOURCE/SINK TERM
FACE 6 OF (J,I,K) =   80,  77,   2 IS NOT A BOUNDARY FACE.         RECHARGE FLOW TREATED AS SOURCE/SINK TERM
FACE 6 OF (J,I,K) =   81,  77,   2 IS NOT A BOUNDARY FACE.         RECHARGE FLOW TREATED AS SOURCE/SINK TERM
FACE 6 OF (J,I,K) =   82,  77,   2 IS NOT A BOUNDARY FACE.         RECHARGE FLOW TREATED AS SOURCE/SINK TERM
FACE 6 OF (J,I,K) =   83,  77,   2 IS NOT A BOUNDARY FACE.         RECHARGE FLOW TREATED AS SOURCE/SINK TERM
FACE 6 OF (J,I,K) =   84,  77,   2 IS NOT A BOUNDARY FACE.         RECHARGE FLOW TREATED AS SOURCE/SINK TERM
FACE 6 OF (J,I,K) =   85,  77,   2 IS NOT A BOUNDARY FACE.         RECHARGE FLOW TREATED AS SOURCE/SINK TERM
FACE 6 OF (J,I,K) =   86,  77,   2 IS NOT A BOUNDARY FACE.         RECHARGE FLOW TREATED AS SOURCE/SINK TERM
FACE 6 OF (J,I,K) =   91,  77,   2 IS NOT A BOUNDARY FACE.         RECHARGE FLOW TREATED AS SOURCE/SINK TERM
FACE 6 OF (J,I,K) =   92,  77,   2 IS NOT A BOUNDARY FACE.         RECHARGE FLOW TREATED AS SOURCE/SINK TERM
FACE 6 OF (J,I,K) =   93,  77,   2 IS NOT A BOUNDARY FACE.         RECHARGE FLOW TREATED AS SOURCE/SINK TERM
FACE 6 OF (J,I,K) =   94,  77,   2 IS NOT A BOUNDARY FACE.         RECHARGE FLOW TREATED AS SOURCE/SINK TERM
FACE 6 OF (J,I,K) =   95,  77,   2 IS NOT A BOUNDARY FACE.         RECHARGE FLOW TREATED AS SOURCE/SINK TERM
FACE 6 OF (J,I,K) =   96,  77,   2 IS NOT A BOUNDARY FACE.         RECHARGE FLOW TREATED AS SOURCE/SINK TERM
FACE 6 OF (J,I,K) =   97,  77,   2 IS NOT A BOUNDARY FACE.         RECHARGE FLOW TREATED AS SOURCE/SINK TERM
FACE 6 OF (J,I,K) =   77,  78,   2 IS NOT A BOUNDARY FACE.         RECHARGE FLOW TREATED AS SOURCE/SINK TERM
FACE 6 OF (J,I,K) =   78,  78,   2 IS NOT A BOUNDARY FACE.         RECHARGE FLOW TREATED AS SOURCE/SINK TERM
FACE 6 OF (J,I,K) =   79,  78,   2 IS NOT A BOUNDARY FACE.         RECHARGE FLOW TREATED AS SOURCE/SINK TERM
FACE 6 OF (J,I,K) =   80,  78,   2 IS NOT A BOUNDARY FACE.         RECHARGE FLOW TREATED AS SOURCE/SINK TERM
FACE 6 OF (J,I,K) =   81,  78,   2 IS NOT A BOUNDARY FACE.         RECHARGE FLOW TREATED AS SOURCE/SINK TERM
FACE 6 OF (J,I,K) =   82,  78,   2 IS NOT A BOUNDARY FACE.         RECHARGE FLOW TREATED AS SOURCE/SINK TERM
FACE 6 OF (J,I,K) =   83,  78,   2 IS NOT A BOUNDARY FACE.         RECHARGE FLOW TREATED AS SOURCE/SINK TERM
FACE 6 OF (J,I,K) =   84,  78,   2 IS NOT A BOUNDARY FACE.         RECHARGE FLOW TREATED AS SOURCE/SINK TERM
FACE 6 OF (J,I,K) =   85,  78,   2 IS NOT A BOUNDARY FACE.         RECHARGE FLOW TREATED AS SOURCE/SINK TERM
FACE 6 OF (J,I,K) =   91,  78,   2 IS NOT A BOUNDARY FACE.         RECHARGE FLOW TREATED AS SOURCE/SINK TERM
FACE 6 OF (J,I,K) =   92,  78,   2 IS NOT A BOUNDARY FACE.         RECHARGE FLOW TREATED AS SOURCE/SINK TERM
FACE 6 OF (J,I,K) =   93,  78,   2 IS NOT A BOUNDARY FACE.         RECHARGE FLOW TREATED AS SOURCE/SINK TERM
FACE 6 OF (J,I,K) =   94,  78,   2 IS NOT A BOUNDARY FACE.         RECHARGE FLOW TREATED AS SOURCE/SINK TERM
FACE 6 OF (J,I,K) =   95,  78,   2 IS NOT A BOUNDARY FACE.         RECHARGE FLOW TREATED AS SOURCE/SINK TERM
FACE 6 OF (J,I,K) =   96,  78,   2 IS NOT A BOUNDARY FACE.         RECHARGE FLOW TREATED AS SOURCE/SINK TERM
FACE 6 OF (J,I,K) =   97,  78,   2 IS NOT A BOUNDARY FACE.         RECHARGE FLOW TREATED AS SOURCE/SINK TERM
FACE 6 OF (J,I,K) =   76,  79,   2 IS NOT A BOUNDARY FACE.         RECHARGE FLOW TREATED AS SOURCE/SINK TERM
FACE 6 OF (J,I,K) =   77,  79,   2 IS NOT A BOUNDARY FACE.         RECHARGE FLOW TREATED AS SOURCE/SINK TERM
FACE 6 OF (J,I,K) =   78,  79,   2 IS NOT A BOUNDARY FACE.         RECHARGE FLOW TREATED AS SOURCE/SINK TERM
FACE 6 OF (J,I,K) =   79,  79,   2 IS NOT A BOUNDARY FACE.         RECHARGE FLOW TREATED AS SOURCE/SINK TERM
FACE 6 OF (J,I,K) =   80,  79,   2 IS NOT A BOUNDARY FACE.         RECHARGE FLOW TREATED AS SOURCE/SINK TERM
FACE 6 OF (J,I,K) =   81,  79,   2 IS NOT A BOUNDARY FACE.         RECHARGE FLOW TREATED AS SOURCE/SINK TERM
FACE 6 OF (J,I,K) =   82,  79,   2 IS NOT A BOUNDARY FACE.         RECHARGE FLOW TREATED AS SOURCE/SINK TERM
FACE 6 OF (J,I,K) =   83,  79,   2 IS NOT A BOUNDARY FACE.         RECHARGE FLOW TREATED AS SOURCE/SINK TERM
FACE 6 OF (J,I,K) =   84,  79,   2 IS NOT A BOUNDARY FACE.         RECHARGE FLOW TREATED AS SOURCE/SINK TERM
FACE 6 OF (J,I,K) =   91,  79,   2 IS NOT A BOUNDARY FACE.         RECHARGE FLOW TREATED AS SOURCE/SINK TERM
FACE 6 OF (J,I,K) =   92,  79,   2 IS NOT A BOUNDARY FACE.         RECHARGE FLOW TREATED AS SOURCE/SINK TERM
FACE 6 OF (J,I,K) =   93,  79,   2 IS NOT A BOUNDARY FACE.         RECHARGE FLOW TREATED AS SOURCE/SINK TERM
FACE 6 OF (J,I,K) =   94,  79,   2 IS NOT A BOUNDARY FACE.         RECHARGE FLOW TREATED AS SOURCE/SINK TERM
FACE 6 OF (J,I,K) =   95,  79,   2 IS NOT A BOUNDARY FACE.         RECHARGE FLOW TREATED AS SOURCE/SINK TERM
FACE 6 OF (J,I,K) =   96,  79,   2 IS NOT A BOUNDARY FACE.         RECHARGE FLOW TREATED AS SOURCE/SINK TERM
FACE 6 OF (J,I,K) =   97,  79,   2 IS NOT A BOUNDARY FACE.         RECHARGE FLOW TREATED AS SOURCE/SINK TERM
FACE 6 OF (J,I,K) =   70,  80,   2 IS NOT A BOUNDARY FACE.         RECHARGE FLOW TREATED AS SOURCE/SINK TERM
FACE 6 OF (J,I,K) =   71,  80,   2 IS NOT A BOUNDARY FACE.         RECHARGE FLOW TREATED AS SOURCE/SINK TERM
FACE 6 OF (J,I,K) =   72,  80,   2 IS NOT A BOUNDARY FACE.         RECHARGE FLOW TREATED AS SOURCE/SINK TERM
FACE 6 OF (J,I,K) =   73,  80,   2 IS NOT A BOUNDARY FACE.         RECHARGE FLOW TREATED AS SOURCE/SINK TERM
FACE 6 OF (J,I,K) =   74,  80,   2 IS NOT A BOUNDARY FACE.         RECHARGE FLOW TREATED AS SOURCE/SINK TERM
FACE 6 OF (J,I,K) =   75,  80,   2 IS NOT A BOUNDARY FACE.         RECHARGE FLOW TREATED AS SOURCE/SINK TERM
FACE 6 OF (J,I,K) =   76,  80,   2 IS NOT A BOUNDARY FACE.         RECHARGE FLOW TREATED AS SOURCE/SINK TERM
FACE 6 OF (J,I,K) =   77,  80,   2 IS NOT A BOUNDARY FACE.         RECHARGE FLOW TREATED AS SOURCE/SINK TERM
FACE 6 OF (J,I,K) =   78,  80,   2 IS NOT A BOUNDARY FACE.         RECHARGE FLOW TREATED AS SOURCE/SINK TERM
FACE 6 OF (J,I,K) =   79,  80,   2 IS NOT A BOUNDARY FACE.         RECHARGE FLOW TREATED AS SOURCE/SINK TERM
FACE 6 OF (J,I,K) =   80,  80,   2 IS NOT A BOUNDARY FACE.         RECHARGE FLOW TREATED AS SOURCE/SINK TERM
FACE 6 OF (J,I,K) =   81,  80,   2 IS NOT A BOUNDARY FACE.         RECHARGE FLOW TREATED AS SOURCE/SINK TERM
FACE 6 OF (J,I,K) =   82,  80,   2 IS NOT A BOUNDARY FACE.         RECHARGE FLOW TREATED AS SOURCE/SINK TERM
FACE 6 OF (J,I,K) =   83,  80,   2 IS NOT A BOUNDARY FACE.         RECHARGE FLOW TREATED AS SOURCE/SINK TERM
FACE 6 OF (J,I,K) =   92,  80,   2 IS NOT A BOUNDARY FACE.         RECHARGE FLOW TREATED AS SOURCE/SINK TERM
FACE 6 OF (J,I,K) =   93,  80,   2 IS NOT A BOUNDARY FACE.         RECHARGE FLOW TREATED AS SOURCE/SINK TERM
FACE 6 OF (J,I,K) =   94,  80,   2 IS NOT A BOUNDARY FACE.         RECHARGE FLOW TREATED AS SOURCE/SINK TERM
FACE 6 OF (J,I,K) =   96,  80,   2 IS NOT A BOUNDARY FACE.         RECHARGE FLOW TREATED AS SOURCE/SINK TERM
FACE 6 OF (J,I,K) =   68,  81,   2 IS NOT A BOUNDARY FACE.         RECHARGE FLOW TREATED AS SOURCE/SINK TERM
FACE 6 OF (J,I,K) =   69,  81,   2 IS NOT A BOUNDARY FACE.         RECHARGE FLOW TREATED AS SOURCE/SINK TERM
FACE 6 OF (J,I,K) =   70,  81,   2 IS NOT A BOUNDARY FACE.         RECHARGE FLOW TREATED AS SOURCE/SINK TERM
FACE 6 OF (J,I,K) =   71,  81,   2 IS NOT A BOUNDARY FACE.         RECHARGE FLOW TREATED AS SOURCE/SINK TERM
FACE 6 OF (J,I,K) =   72,  81,   2 IS NOT A BOUNDARY FACE.         RECHARGE FLOW TREATED AS SOURCE/SINK TERM
FACE 6 OF (J,I,K) =   73,  81,   2 IS NOT A BOUNDARY FACE.         RECHARGE FLOW TREATED AS SOURCE/SINK TERM
FACE 6 OF (J,I,K) =   74,  81,   2 IS NOT A BOUNDARY FACE.         RECHARGE FLOW TREATED AS SOURCE/SINK TERM
FACE 6 OF (J,I,K) =   75,  81,   2 IS NOT A BOUNDARY FACE.         RECHARGE FLOW TREATED AS SOURCE/SINK TERM
FACE 6 OF (J,I,K) =   76,  81,   2 IS NOT A BOUNDARY FACE.         RECHARGE FLOW TREATED AS SOURCE/SINK TERM
FACE 6 OF (J,I,K) =   77,  81,   2 IS NOT A BOUNDARY FACE.         RECHARGE FLOW TREATED AS SOURCE/SINK TERM
FACE 6 OF (J,I,K) =   78,  81,   2 IS NOT A BOUNDARY FACE.         RECHARGE FLOW TREATED AS SOURCE/SINK TERM
FACE 6 OF (J,I,K) =   79,  81,   2 IS NOT A BOUNDARY FACE.         RECHARGE FLOW TREATED AS SOURCE/SINK TERM
FACE 6 OF (J,I,K) =   80,  81,   2 IS NOT A BOUNDARY FACE.         RECHARGE FLOW TREATED AS SOURCE/SINK TERM
FACE 6 OF (J,I,K) =   81,  81,   2 IS NOT A BOUNDARY FACE.         RECHARGE FLOW TREATED AS SOURCE/SINK TERM
FACE 6 OF (J,I,K) =   82,  81,   2 IS NOT A BOUNDARY FACE.         RECHARGE FLOW TREATED AS SOURCE/SINK TERM
FACE 6 OF (J,I,K) =   66,  82,   2 IS NOT A BOUNDARY FACE.         RECHARGE FLOW TREATED AS SOURCE/SINK TERM
FACE 6 OF (J,I,K) =   67,  82,   2 IS NOT A BOUNDARY FACE.         RECHARGE FLOW TREATED AS SOURCE/SINK TERM
FACE 6 OF (J,I,K) =   68,  82,   2 IS NOT A BOUNDARY FACE.         RECHARGE FLOW TREATED AS SOURCE/SINK TERM
FACE 6 OF (J,I,K) =   69,  82,   2 IS NOT A BOUNDARY FACE.         RECHARGE FLOW TREATED AS SOURCE/SINK TERM
FACE 6 OF (J,I,K) =   70,  82,   2 IS NOT A BOUNDARY FACE.         RECHARGE FLOW TREATED AS SOURCE/SINK TERM
FACE 6 OF (J,I,K) =   71,  82,   2 IS NOT A BOUNDARY FACE.         RECHARGE FLOW TREATED AS SOURCE/SINK TERM
FACE 6 OF (J,I,K) =   72,  82,   2 IS NOT A BOUNDARY FACE.         RECHARGE FLOW TREATED AS SOURCE/SINK TERM
FACE 6 OF (J,I,K) =   73,  82,   2 IS NOT A BOUNDARY FACE.         RECHARGE FLOW TREATED AS SOURCE/SINK TERM
FACE 6 OF (J,I,K) =   74,  82,   2 IS NOT A BOUNDARY FACE.         RECHARGE FLOW TREATED AS SOURCE/SINK TERM
FACE 6 OF (J,I,K) =   75,  82,   2 IS NOT A BOUNDARY FACE.         RECHARGE FLOW TREATED AS SOURCE/SINK TERM
FACE 6 OF (J,I,K) =   76,  82,   2 IS NOT A BOUNDARY FACE.         RECHARGE FLOW TREATED AS SOURCE/SINK TERM
FACE 6 OF (J,I,K) =   77,  82,   2 IS NOT A BOUNDARY FACE.         RECHARGE FLOW TREATED AS SOURCE/SINK TERM
FACE 6 OF (J,I,K) =   78,  82,   2 IS NOT A BOUNDARY FACE.         RECHARGE FLOW TREATED AS SOURCE/SINK TERM
FACE 6 OF (J,I,K) =   79,  82,   2 IS NOT A BOUNDARY FACE.         RECHARGE FLOW TREATED AS SOURCE/SINK TERM
FACE 6 OF (J,I,K) =   80,  82,   2 IS NOT A BOUNDARY FACE.         RECHARGE FLOW TREATED AS SOURCE/SINK TERM
FACE 6 OF (J,I,K) =   81,  82,   2 IS NOT A BOUNDARY FACE.         RECHARGE FLOW TREATED AS SOURCE/SINK TERM
FACE 6 OF (J,I,K) =   27,  83,   2 IS NOT A BOUNDARY FACE.         RECHARGE FLOW TREATED AS SOURCE/SINK TERM
FACE 6 OF (J,I,K) =   28,  83,   2 IS NOT A BOUNDARY FACE.         RECHARGE FLOW TREATED AS SOURCE/SINK TERM
FACE 6 OF (J,I,K) =   29,  83,   2 IS NOT A BOUNDARY FACE.         RECHARGE FLOW TREATED AS SOURCE/SINK TERM
FACE 6 OF (J,I,K) =   30,  83,   2 IS NOT A BOUNDARY FACE.         RECHARGE FLOW TREATED AS SOURCE/SINK TERM
FACE 6 OF (J,I,K) =   31,  83,   2 IS NOT A BOUNDARY FACE.         RECHARGE FLOW TREATED AS SOURCE/SINK TERM
FACE 6 OF (J,I,K) =   32,  83,   2 IS NOT A BOUNDARY FACE.         RECHARGE FLOW TREATED AS SOURCE/SINK TERM
FACE 6 OF (J,I,K) =   33,  83,   2 IS NOT A BOUNDARY FACE.         RECHARGE FLOW TREATED AS SOURCE/SINK TERM
FACE 6 OF (J,I,K) =   34,  83,   2 IS NOT A BOUNDARY FACE.         RECHARGE FLOW TREATED AS SOURCE/SINK TERM
FACE 6 OF (J,I,K) =   35,  83,   2 IS NOT A BOUNDARY FACE.         RECHARGE FLOW TREATED AS SOURCE/SINK TERM
FACE 6 OF (J,I,K) =   36,  83,   2 IS NOT A BOUNDARY FACE.         RECHARGE FLOW TREATED AS SOURCE/SINK TERM
FACE 6 OF (J,I,K) =   37,  83,   2 IS NOT A BOUNDARY FACE.         RECHARGE FLOW TREATED AS SOURCE/SINK TERM
FACE 6 OF (J,I,K) =   38,  83,   2 IS NOT A BOUNDARY FACE.         RECHARGE FLOW TREATED AS SOURCE/SINK TERM
FACE 6 OF (J,I,K) =   64,  83,   2 IS NOT A BOUNDARY FACE.         RECHARGE FLOW TREATED AS SOURCE/SINK TERM
FACE 6 OF (J,I,K) =   65,  83,   2 IS NOT A BOUNDARY FACE.         RECHARGE FLOW TREATED AS SOURCE/SINK TERM
FACE 6 OF (J,I,K) =   66,  83,   2 IS NOT A BOUNDARY FACE.         RECHARGE FLOW TREATED AS SOURCE/SINK TERM
FACE 6 OF (J,I,K) =   67,  83,   2 IS NOT A BOUNDARY FACE.         RECHARGE FLOW TREATED AS SOURCE/SINK TERM
FACE 6 OF (J,I,K) =   68,  83,   2 IS NOT A BOUNDARY FACE.         RECHARGE FLOW TREATED AS SOURCE/SINK TERM
FACE 6 OF (J,I,K) =   69,  83,   2 IS NOT A BOUNDARY FACE.         RECHARGE FLOW TREATED AS SOURCE/SINK TERM
FACE 6 OF (J,I,K) =   70,  83,   2 IS NOT A BOUNDARY FACE.         RECHARGE FLOW TREATED AS SOURCE/SINK TERM
FACE 6 OF (J,I,K) =   71,  83,   2 IS NOT A BOUNDARY FACE.         RECHARGE FLOW TREATED AS SOURCE/SINK TERM
FACE 6 OF (J,I,K) =   72,  83,   2 IS NOT A BOUNDARY FACE.         RECHARGE FLOW TREATED AS SOURCE/SINK TERM
FACE 6 OF (J,I,K) =   73,  83,   2 IS NOT A BOUNDARY FACE.         RECHARGE FLOW TREATED AS SOURCE/SINK TERM
FACE 6 OF (J,I,K) =   74,  83,   2 IS NOT A BOUNDARY FACE.         RECHARGE FLOW TREATED AS SOURCE/SINK TERM
FACE 6 OF (J,I,K) =   75,  83,   2 IS NOT A BOUNDARY FACE.         RECHARGE FLOW TREATED AS SOURCE/SINK TERM
FACE 6 OF (J,I,K) =   76,  83,   2 IS NOT A BOUNDARY FACE.         RECHARGE FLOW TREATED AS SOURCE/SINK TERM
FACE 6 OF (J,I,K) =   77,  83,   2 IS NOT A BOUNDARY FACE.         RECHARGE FLOW TREATED AS SOURCE/SINK TERM
FACE 6 OF (J,I,K) =   78,  83,   2 IS NOT A BOUNDARY FACE.         RECHARGE FLOW TREATED AS SOURCE/SINK TERM
FACE 6 OF (J,I,K) =   79,  83,   2 IS NOT A BOUNDARY FACE.         RECHARGE FLOW TREATED AS SOURCE/SINK TERM
FACE 6 OF (J,I,K) =   80,  83,   2 IS NOT A BOUNDARY FACE.         RECHARGE FLOW TREATED AS SOURCE/SINK TERM
FACE 6 OF (J,I,K) =   81,  83,   2 IS NOT A BOUNDARY FACE.         RECHARGE FLOW TREATED AS SOURCE/SINK TERM
FACE 6 OF (J,I,K) =   25,  84,   2 IS NOT A BOUNDARY FACE.         RECHARGE FLOW TREATED AS SOURCE/SINK TERM
FACE 6 OF (J,I,K) =   26,  84,   2 IS NOT A BOUNDARY FACE.         RECHARGE FLOW TREATED AS SOURCE/SINK TERM
FACE 6 OF (J,I,K) =   27,  84,   2 IS NOT A BOUNDARY FACE.         RECHARGE FLOW TREATED AS SOURCE/SINK TERM
FACE 6 OF (J,I,K) =   28,  84,   2 IS NOT A BOUNDARY FACE.         RECHARGE FLOW TREATED AS SOURCE/SINK TERM
FACE 6 OF (J,I,K) =   29,  84,   2 IS NOT A BOUNDARY FACE.         RECHARGE FLOW TREATED AS SOURCE/SINK TERM
FACE 6 OF (J,I,K) =   30,  84,   2 IS NOT A BOUNDARY FACE.         RECHARGE FLOW TREATED AS SOURCE/SINK TERM
FACE 6 OF (J,I,K) =   31,  84,   2 IS NOT A BOUNDARY FACE.         RECHARGE FLOW TREATED AS SOURCE/SINK TERM
FACE 6 OF (J,I,K) =   32,  84,   2 IS NOT A BOUNDARY FACE.         RECHARGE FLOW TREATED AS SOURCE/SINK TERM
FACE 6 OF (J,I,K) =   33,  84,   2 IS NOT A BOUNDARY FACE.         RECHARGE FLOW TREATED AS SOURCE/SINK TERM
FACE 6 OF (J,I,K) =   34,  84,   2 IS NOT A BOUNDARY FACE.         RECHARGE FLOW TREATED AS SOURCE/SINK TERM
FACE 6 OF (J,I,K) =   35,  84,   2 IS NOT A BOUNDARY FACE.         RECHARGE FLOW TREATED AS SOURCE/SINK TERM
FACE 6 OF (J,I,K) =   36,  84,   2 IS NOT A BOUNDARY FACE.         RECHARGE FLOW TREATED AS SOURCE/SINK TERM
FACE 6 OF (J,I,K) =   37,  84,   2 IS NOT A BOUNDARY FACE.         RECHARGE FLOW TREATED AS SOURCE/SINK TERM
FACE 6 OF (J,I,K) =   38,  84,   2 IS NOT A BOUNDARY FACE.         RECHARGE FLOW TREATED AS SOURCE/SINK TERM
FACE 6 OF (J,I,K) =   63,  84,   2 IS NOT A BOUNDARY FACE.         RECHARGE FLOW TREATED AS SOURCE/SINK TERM
FACE 6 OF (J,I,K) =   64,  84,   2 IS NOT A BOUNDARY FACE.         RECHARGE FLOW TREATED AS SOURCE/SINK TERM
FACE 6 OF (J,I,K) =   65,  84,   2 IS NOT A BOUNDARY FACE.         RECHARGE FLOW TREATED AS SOURCE/SINK TERM
FACE 6 OF (J,I,K) =   66,  84,   2 IS NOT A BOUNDARY FACE.         RECHARGE FLOW TREATED AS SOURCE/SINK TERM
FACE 6 OF (J,I,K) =   67,  84,   2 IS NOT A BOUNDARY FACE.         RECHARGE FLOW TREATED AS SOURCE/SINK TERM
FACE 6 OF (J,I,K) =   68,  84,   2 IS NOT A BOUNDARY FACE.         RECHARGE FLOW TREATED AS SOURCE/SINK TERM
FACE 6 OF (J,I,K) =   69,  84,   2 IS NOT A BOUNDARY FACE.         RECHARGE FLOW TREATED AS SOURCE/SINK TERM
FACE 6 OF (J,I,K) =   70,  84,   2 IS NOT A BOUNDARY FACE.         RECHARGE FLOW TREATED AS SOURCE/SINK TERM
FACE 6 OF (J,I,K) =   71,  84,   2 IS NOT A BOUNDARY FACE.         RECHARGE FLOW TREATED AS SOURCE/SINK TERM
FACE 6 OF (J,I,K) =   72,  84,   2 IS NOT A BOUNDARY FACE.         RECHARGE FLOW TREATED AS SOURCE/SINK TERM
FACE 6 OF (J,I,K) =   73,  84,   2 IS NOT A BOUNDARY FACE.         RECHARGE FLOW TREATED AS SOURCE/SINK TERM
FACE 6 OF (J,I,K) =   74,  84,   2 IS NOT A BOUNDARY FACE.         RECHARGE FLOW TREATED AS SOURCE/SINK TERM
FACE 6 OF (J,I,K) =   75,  84,   2 IS NOT A BOUNDARY FACE.         RECHARGE FLOW TREATED AS SOURCE/SINK TERM
FACE 6 OF (J,I,K) =   76,  84,   2 IS NOT A BOUNDARY FACE.         RECHARGE FLOW TREATED AS SOURCE/SINK TERM
FACE 6 OF (J,I,K) =   77,  84,   2 IS NOT A BOUNDARY FACE.         RECHARGE FLOW TREATED AS SOURCE/SINK TERM
[...]
   14   86    1 200.0000    0.32472E+02
   14   87    1 200.0000    0.76924E+01
   14   88    1 200.0000    0.75766E+01
   14   90    1 200.0000    0.10353E+02
   14   91    1 200.0000    0.10260E+02
   14   92    1 200.0000    0.57456E+01
   15   80    1 200.0000    0.48824E+02
   15   82    1 200.0000    0.74542E+02
   15   92    1 200.0000    0.18779E+02
   15   93    1 200.0000    0.59767E+01
   16   78    1 200.0000    0.31933E+02
   16   79    1 200.0000    0.61795E+02
   16   80    1 200.0000    0.80065E+02
   16   93    1 200.0000    0.18863E+02
   16   94    1 200.0000    0.13624E+02
   17   77    1 200.0000    0.36681E+02
   17   78    1 200.0000    0.76174E+02
   17   94    1 200.0000    0.15297E+02
   17   95    1 200.0000    0.14797E+02
   18   76    1 200.0000    0.52163E+02
   18   77    1 200.0000    0.10217E+03
   18   95    1 200.0000    0.22254E+02
   18   96    1 200.0000    0.11223E+02
   19   75    1 200.0000    0.49405E+02
   19   76    1 200.0000    0.12623E+03
   19   95    1 200.0000    0.33295E+02
   19   96    1 200.0000    0.17801E+02
   19   97    1 200.0000    0.10882E+02
   20   75    1 200.0000    0.81800E+02
   20   97    1 200.0000    0.23470E+02
   20   98    1 200.0000    0.68172E+01
   21   73    1 200.0000    0.38608E+02
   21   74    1 200.0000    0.88618E+02
   21   75    1 200.0000    0.12902E+03
   21   98    1 200.0000    0.19953E+02
   21   99    1 200.0000    0.16828E+02
   22   72    1 200.0000    0.44998E+02
   22   73    1 200.0000    0.83638E+02
   22   89    1   0.0012    0.20862E-04
   22   90    1   0.0034    0.29445E-04
   22   99    1 200.0000    0.16038E+02
   22  100    1 200.0000    0.12633E+02
   23   66    1 200.0000    0.53353E+02
   23   67    1 200.0000    0.53832E+02
   23   68    1 200.0000    0.70549E+02
   23   70    1 200.0000    0.73644E+02
   23   71    1 200.0000    0.68008E+02
   23   72    1 200.0000    0.76007E+02
   23  100    1 200.0000    0.32908E+02
   23  101    1 200.0000    0.13148E+02
   24   62    1 200.0000    0.12163E+02
   24   63    1 200.0000    0.12932E+02
   24   64    1 200.0000    0.16748E+02
   24   65    1 200.0000    0.18256E+02
   24   66    1 200.0000    0.18601E+02
   24   67    1 200.0000    0.20434E+02
   24   68    1 200.0000    0.21815E+02
   24   69    1 200.0000    0.24696E+02
   24   70    1 200.0000    0.28294E+02
   24  101    1 200.0000    0.15831E+02
   25   59    1 200.0000    0.37930E+01
   25   60    1 200.0000    0.43171E+02
   25   61    1 200.0000    0.10403E+02
   25   62    1 200.0000    0.13011E+02
   25   63    1 200.0000    0.14890E+02
   25   64    1 200.0000    0.17945E+02
   25  101    1 200.0000    0.37773E+02
   25  102    1 200.0000    0.15302E+02
   26   56    1 200.0000    0.34324E+01
   26   57    1 200.0000    0.33914E+01
   26   58    1 200.0000    0.60562E+01
   26   59    1 200.0000    0.33518E+02
   26   60    1 200.0000    0.42440E+02
   26   61    1 200.0000    0.12439E+02
   26  102    1 200.0000    0.15144E+02
   26  103    1 200.0000    0.12929E+02
   27   54    1 200.0000    0.28613E+01
   27   55    1 200.0000    0.31044E+01
   27   56    1 200.0000    0.78875E+01
   27   57    1 200.0000    0.91892E+01
   27  102    1 200.0000    0.39570E+02
   27  103    1 200.0000    0.15337E+02
   28   53    1 200.0000    0.19142E+01
   28   54    1 200.0000    0.28462E+02
   28   55    1 200.0000    0.34583E+02
   28  103    1 200.0000    0.25830E+02
   28  104    1 200.0000    0.83595E+01
   29   52    1 200.0000    0.13517E+02
   29   53    1 200.0000    0.22448E+02
   29   54    1 200.0000    0.37110E+02
   29  103    1 200.0000    0.33022E+02
   29  104    1 200.0000    0.48411E+01
   30   51    1 200.0000    0.14671E+02
   30   52    1 200.0000    0.27657E+02
   30  103    1 200.0000    0.43641E+02
   30  104    1 200.0000    0.19025E+02
   31   48    1 200.0000    0.14757E+02
   31   49    1 200.0000    0.11396E+02
   31   50    1 200.0000    0.31754E+02
   31   51    1 200.0000    0.30940E+02
   31   52    1 200.0000    0.27019E+02
   31  104    1 200.0000    0.35780E+02
   32   41    1 200.0000    0.94127E+01
   32   42    1 200.0000    0.12241E+02
   32   43    1 200.0000    0.12366E+02
   32   44    1 200.0000    0.15800E+02
   32   45    1 200.0000    0.32345E+02
   32   46    1 200.0000    0.16891E+02
   32   47    1 200.0000    0.21698E+02
   32   48    1 200.0000    0.33871E+02
   32   49    1 200.0000    0.48899E+02
   32   65    1   0.0055    0.28193E-04
   32  104    1 200.0000    0.17720E+02
   32  105    1 200.0000    0.17773E+02
   33   38    1 200.0000    0.39689E+01
   33   39    1 200.0000    0.56547E+01
   33   40    1 200.0000    0.10866E+02
   33   41    1 200.0000    0.29027E+02
   33   42    1 200.0000    0.33916E+02
   33   43    1 200.0000    0.43633E+02
   33   44    1 200.0000    0.51861E+02
   33   46    1 200.0000    0.60342E+02
   33   47    1 200.0000    0.62656E+02
   33  104    1 200.0000    0.17682E+02
   33  105    1 200.0000    0.19069E+02
   34   37    1 200.0000    0.20365E+01
   34   38    1 200.0000    0.14680E+02
   34   39    1 200.0000    0.29282E+02
   34   40    1 200.0000    0.39060E+02
   34  104    1 200.0000    0.52717E+02
   34  105    1 200.0000    0.20710E+02
   35   35    1 200.0000    0.81814E+01
   35   36    1 200.0000    0.10096E+02
   35   37    1 200.0000    0.23967E+02
   35  105    1 200.0000    0.14347E+02
   35  106    1 200.0000    0.66195E+01
   36   34    1 200.0000    0.14126E+02
   36   35    1 200.0000    0.10245E+02
   36   36    1 200.0000    0.39636E+02
   36   88    1  -0.0011   -0.24796E-03
   36  105    1 200.0000    0.17740E+02
   36  106    1 200.0000    0.69087E+01
   37   32    1 200.0000    0.11669E+02
   37   33    1 200.0000    0.13346E+02
   37   34    1 200.0000    0.30806E+02
   37   35    1 200.0000    0.47466E+02
   37  105    1 200.0000    0.18817E+02
   37  106    1 200.0000    0.69921E+01
   38   31    1 200.0000    0.15410E+02
   38   32    1 200.0000    0.21159E+02
   38   33    1 200.0000    0.43226E+02
   38  105    1 200.0000    0.26385E+02
   38  106    1 200.0000    0.79546E+01
   39   29    1 200.0000    0.97928E+01
   39   30    1 200.0000    0.15822E+02
   39   31    1 200.0000    0.84527E+02
   39   54    1  -0.0013   -0.26703E-04
   39  106    1 200.0000    0.50082E+02
   39  107    1 200.0000    0.33445E+02
   40   29    1 200.0000    0.10885E+02
   40   30    1 200.0000    0.95806E+02
   40   92    1   0.0011    0.21935E-04
   40  106    1 200.0000    0.56678E+02
   40  107    1 200.0000    0.26385E+02
   41   27    1 200.0000    0.10503E+02
   41   28    1 200.0000    0.12030E+02
   41   29    1 194.6021    0.11897E+02
   41  107    1 200.0000    0.35419E+02
   42   27    1 200.0000    0.45685E+01
   42   28    1 200.0000    0.11506E+02
   42  106    1 200.0000    0.68472E+02
   42  107    1 200.0000    0.33170E+02
   43   21    1  -0.0791   -0.47288E-02
   43   27    1 200.0000    0.50223E+01
   43   28    1 200.0000    0.55345E+01
   43   40    1   0.0011    0.19455E-03
   43   91    1   0.0013    0.30994E-04
   43  106    1 200.0000    0.18244E+02
   43  107    1 200.0000    0.12789E+02
   44   19    1  -0.0024   -0.11206E-03
   44   20    1  -0.0698   -0.46301E-02
   44   21    1  -0.0149   -0.90837E-03
   44   22    1 200.0000    0.37657E+02
   44   27    1 200.0000    0.40188E+01
   44   28    1 200.0000    0.62692E+01
   44   40    1   0.0011    0.17071E-03
   44   89    1  -0.0015   -0.15068E-03
   44  106    1 200.0000    0.19930E+02
   44  107    1 200.0000    0.13972E+02
   45   18    1  -0.0513   -0.24161E-02
   45   19    1  -0.0105   -0.55170E-03
   45   20    1   0.0012    0.25272E-04
   45   21    1  -0.8465   -0.59040E-01
   45   22    1 200.0000    0.47887E+02
   45   23    1 200.0000    0.29656E+02
   45   27    1 200.0000    0.40704E+01
   45   28    1 200.0000    0.66603E+01
   45   33    1   0.0015    0.71335E-03
   45   34    1   0.0016    0.92316E-03
   45   36    1   0.0010    0.10395E-03
   45   40    1   0.0017    0.21362E-03
   45   41    1   0.0016    0.20981E-03
   45   43    1  -0.0013   -0.17548E-03
   45   90    1   0.0028    0.17941E-04
   45   91    1   0.0021    0.33498E-04
   45   92    1   0.0012    0.28849E-04
   45  106    1 200.0000    0.12807E+02
   45  107    1 200.0000    0.14350E+02
   46   18    1   0.0044    0.19789E-03
   46   20    1   0.0014    0.27537E-04
   46   23    1 200.0000    0.33063E+02
   46   28    1 200.0000    0.68997E+01
   46   29    1 200.0000    0.14612E+02
   46   36    1   0.0016    0.11444E-03
   46   38    1   0.0011    0.10872E-03
   46   39    1   0.0014    0.14877E-03
   46   40    1   0.0033    0.36430E-03
   46   41    1   0.0040    0.45109E-03
   46   42    1   0.0021    0.24223E-03
   46   43    1  -0.0038   -0.40054E-03
   46   89    1   0.0014    0.14901E-04
   46   90    1   0.0012    0.13471E-04
   46  106    1 200.0000    0.16587E+02
   47   17    1   0.0373    0.11747E-02
   47   22    1 200.0000    0.30052E+02
   47   23    1 200.0000    0.25164E+02
   47   28    1 200.0000    0.10489E+02
   47   29    1 200.0000    0.21203E+01
   47   35    1  -0.0011   -0.52643E-03
   47   36    1   0.0035    0.35763E-03
   47   38    1   0.0013    0.13924E-03
   47   39    1   0.0016    0.11826E-03
   47   40    1   0.0064    0.53787E-03
   47   41    1   0.0086    0.81825E-03
   47   42    1   0.0080    0.83733E-03
   47   43    1  -0.0116   -0.82302E-03
   47   48    1  -0.0017   -0.12398E-03
   47  106    1 200.0000    0.35450E+02
   48   17    1  -0.0363   -0.10862E-02
   48   18    1   0.0041    0.26703E-04
   48   20    1  -0.0012   -0.11772E-05
   48   21    1  -0.0011   -0.57817E-05
   48   22    1 200.0000    0.24726E+02
   48   23    1 200.0000    0.53164E+02
   48   29    1 200.0000    0.23471E+01
   48   35    1  -0.0015   -0.50354E-03
   48   36    1   0.0013    0.87261E-04
   48   38    1   0.0017    0.11587E-03
   48   40    1   0.0044    0.22268E-03
   48   41    1   0.0152    0.11768E-02
   48   42    1   0.0293    0.21467E-02
   48   43    1  -0.0038   -0.13262E-04
   48   93    1  -0.0012   -0.22054E-04
   48  106    1 200.0000    0.50516E+02
   48  107    1 200.0000    0.16860E+02
   49   16    1  -0.1417   -0.30773E-02
   49   17    1   0.0757    0.19753E-02
   49   18    1   0.0040    0.26286E-04
   49   19    1  -0.0013   -0.79721E-06
   49   20    1  -0.0032   -0.18105E-05
   49   21    1  -0.0015   -0.21607E-05
   49   23    1 200.0000    0.22142E+02
   49   29    1 200.0000    0.26508E+02
   49   30    1 200.0000    0.35353E+02
   49   35    1  -0.0033   -0.75722E-03
   49   40    1  -0.0014   -0.49174E-05
   49   41    1   0.0057    0.39673E-03
   49   42    1   0.0675    0.25322E-02
   49   43    1  -0.0035   -0.14544E-04
   49  107    1 200.0000    0.36276E+02
   50   16    1  -0.2076   -0.56562E-02
   50   17    1   0.0023    0.25392E-04
   50   18    1   0.0081    0.27239E-04
   50   19    1  -0.0023   -0.21160E-05
   50   20    1  -0.0017   -0.19148E-05
   50   22    1 200.0000    0.72897E+01
   50   23    1 200.0000    0.54809E+01
   50   30    1 200.0000    0.11011E+02
   50   31    1 200.0000    0.23660E+02
   50   37    1  -0.0015   -0.21458E-05
   50   39    1  -0.0010   -0.87172E-06
   50   41    1  -0.0032   -0.12219E-04
   50   42    1  -0.0028   -0.14037E-04
   50  107    1 200.0000    0.49970E+02
   50  108    1 200.0000    0.32953E+02
   51   16    1  -0.0995   -0.29094E-02
   51   17    1   0.0033    0.26345E-04
   51   18    1   0.0095    0.27597E-04
   51   19    1  -0.0013   -0.86427E-06
   51   22    1 200.0000    0.25676E+02
   51   23    1 200.0000    0.55615E+01
   51   30    1 200.0000    0.22490E+02
   51   31    1 200.0000    0.35308E+02
   51  108    1 200.0000    0.66096E+02
   51  109    1 200.0000    0.38037E+02
   52   15    1   0.0795    0.20204E-02
   52   16    1   0.0586    0.10889E-02
   52   17    1   0.0045    0.26941E-04
   52   18    1   0.0133    0.27761E-04
   52   20    1  -0.0022   -0.17405E-04
   52   22    1 200.0000    0.72770E+01
   52   23    1 200.0000    0.28876E+02
   52   31    1 200.0000    0.23628E+02
   52  109    1 200.0000    0.96101E+02
   52  110    1 200.0000    0.83738E+02
   52  111    1 200.0000    0.81495E+02
   52  112    1 200.0000    0.87069E+02
   52  113    1 200.0000    0.85521E+02
   53   15    1  -0.0529   -0.17061E-02
   53   16    1   0.0030    0.25690E-04
   53   17    1   0.0083    0.27955E-04
   53   18    1   0.0179    0.28118E-04
   53   22    1 200.0000    0.77394E+01
   53   23    1 200.0000    0.64542E+01
   53   31    1 200.0000    0.30481E+02
   53   32    1 200.0000    0.65648E+02
   53  114    1 200.0000    0.13562E+03
   54   14    1  -0.0861   -0.25051E-02
   54   15    1  -0.0014   -0.20266E-04
   54   19    1  -0.0012   -0.54017E-06
   54   22    1 200.0000    0.41641E+02
   54   31    1 200.0000    0.31123E+02
   54   36    1   0.0011    0.15259E-04
   54   45    1  -0.0013   -0.14976E-05
   55   14    1   0.0145    0.51284E-03
   55   16    1   0.0013    0.44584E-04
   55   18    1  -0.0050   -0.31888E-05
   55   21    1   0.0011    0.10788E-04
   55   22    1 200.0000    0.96829E+01
   55   30    1 200.0000    0.32601E+02
   55   31    1 200.0000    0.31541E+02
   56   13    1   0.0302    0.84424E-03
   56   14    1   0.0166    0.56148E-03
   56   17    1   0.0021    0.62704E-04
   56   19    1   0.0013    0.59232E-06
   56   21    1   0.0018    0.20599E-03
   56   22    1 200.0000    0.65103E+02
   56   23    1 200.0000    0.10970E+02
   56   29    1 200.0000    0.18424E+01
   56   30    1 200.0000    0.31217E+02
   56   31    1 200.0000    0.49439E+02
   56   43    1  -0.0023   -0.17062E-05
   57   13    1  -0.2773   -0.10730E-01
   57   15    1   0.0010    0.32187E-04
   57   16    1   0.0018    0.51260E-04
   57   17    1   0.0011    0.32187E-04
   57   19    1   0.0020    0.19222E-05
   57   20    1   0.0012    0.23097E-05
   57   21    1  -0.0014   -0.12207E-03
   57   23    1 200.0000    0.59651E+02
   57   24    1 200.0000    0.40598E+02
   57   25    1 200.0000    0.94648E+01
   57   26    1 200.0000    0.36468E+01
   57   27    1 200.0000    0.53155E+02
   57   28    1 200.0000    0.11664E+02
   57   29    1 200.0000    0.98115E+01
   57   30    1 200.0000    0.38428E+02
   57   39    1   0.0010    0.60350E-06
   57   43    1  -0.0011   -0.64448E-06
   58   12    1   0.0702    0.22237E-02
   58   13    1  -0.0421   -0.15278E-02
   58   15    1   0.0011    0.34094E-04
   58   17    1   0.0020    0.53406E-04
   58   18    1   0.0017    0.51022E-04
   58   19    1   0.0020    0.28461E-05
   58   24    1 200.0000    0.68531E+02
   58   25    1 200.0000    0.11797E+02
   58   26    1 200.0000    0.11295E+03
   58   27    1 200.0000    0.20389E+02
   58   39    1   0.0015    0.29244E-06
   58   48    1   0.0010    0.11349E-03
   58   51    1  -0.0016   -0.10586E-03
   59   12    1  -0.0172   -0.77057E-03
   59   15    1   0.0021    0.65327E-04
   59   16    1   0.0019    0.17929E-03
   59   17    1   0.0046    0.32902E-03
   59   18    1   0.0015    0.22888E-03
   59   19    1   0.0010    0.61512E-04
   59   21    1   0.0013    0.26673E-05
   59   22    1   0.0011    0.24319E-04
   59   32    1  -0.0011   -0.18239E-04
   59   34    1   0.0014    0.13947E-04
   59   36    1  -0.0014   -0.78678E-05
   59   37    1  -0.0014   -0.96112E-06
   59   38    1   0.0021    0.74878E-06
   59   40    1   0.0020    0.94995E-06
   59   41    1   0.0013    0.59605E-06
   59   46    1  -0.0025   -0.12922E-03
   59   47    1  -0.0015   -0.85831E-04
   59   51    1  -0.0016   -0.12970E-03
   59   53    1  -0.0019   -0.10014E-03
   59  115    1  -0.0520   -0.20823E-02
   60   11    1  -0.0340   -0.13013E-02
   60   13    1   0.0011    0.42677E-04
   60   14    1   0.0022    0.74625E-04
   60   16    1   0.0019    0.18311E-03
   60   17    1   0.0011    0.13065E-03
   60   18    1   0.0016    0.33379E-03
   60   19    1  -0.0015   -0.49114E-04
   60   20    1  -0.0019   -0.59366E-04
   60   21    1   0.0017    0.14544E-04
   60   22    1   0.0022    0.36716E-04
   60   26    1   0.0014    0.33617E-04
   60   27    1   0.0017    0.35048E-04
   60   29    1   0.0010    0.10967E-04
   60   31    1  -0.0020   -0.34094E-04
   60   34    1   0.0015    0.13709E-04
   60   39    1   0.0026    0.14193E-05
   60   40    1   0.0024    0.12852E-05
   60   41    1   0.0014    0.73016E-06
   60   45    1  -0.0019   -0.84877E-04
   60   50    1  -0.0015   -0.12016E-03
   60   51    1  -0.0010   -0.94414E-04
   61   11    1  -0.0711   -0.26903E-02
   61   13    1   0.0011    0.48161E-04
   61   14    1   0.0012    0.43869E-04
   61   15    1   0.0021    0.72479E-04
   61   16    1   0.0018    0.61274E-04
   61   17    1   0.0014    0.53644E-04
   61   18    1   0.0013    0.50735E-03
   61   19    1   0.0010    0.10952E-05
   61   20    1   0.0018    0.21458E-04
   61   21    1   0.0018    0.23484E-04
   61   22    1   0.0049    0.40829E-04
   61   23    1   0.0020    0.36955E-05
   61   24    1   0.0021    0.37909E-04
   61   26    1   0.0026    0.29325E-04
   61   27    1   0.0043    0.40293E-04
   61   28    1   0.0033    0.27359E-04
   61   29    1   0.0045    0.25153E-04
   61   30    1   0.0049    0.26107E-04
   61   32    1  -0.0032   -0.23425E-04
   61   33    1  -0.0017   -0.21935E-04
   61   34    1   0.0015    0.13173E-04
   61   36    1   0.0019    0.14082E-05
   61   37    1   0.0011    0.66683E-06
   61   38    1   0.0017    0.79721E-06
   61   39    1   0.0032    0.15087E-05
   61   40    1   0.0015    0.73388E-06
   61   44    1   0.0019    0.22575E-05
   61   48    1  -0.0013   -0.10109E-03
   61   49    1  -0.0012   -0.97275E-04
   61  110    1  -0.0011   -0.23842E-04
   61  111    1  -0.0015   -0.35524E-04
   61  112    1  -0.0014   -0.45061E-04
   62   11    1   0.0600    0.20697E-02
   62   12    1   0.0029    0.44703E-04
   62   13    1   0.0081    0.55194E-04
   62   19    1   0.0279    0.71168E-04
   62   20    1   0.0056    0.14448E-03
   62   21    1   0.0027    0.18358E-03
   62   22    1   0.0059    0.11432E-03
   62   23    1   0.0016    0.90003E-05
   62   26    1   0.0032    0.24915E-04
   62   27    1   0.0025    0.28968E-04
   62   28    1   0.0013    0.17047E-04
   62   31    1  -0.0014   -0.12934E-04
   62   32    1  -0.0023   -0.16034E-04
   62   36    1   0.0010    0.66310E-06
   62   38    1   0.0020    0.11772E-05
   62   42    1  -0.0017   -0.14901E-05
   62   43    1  -0.0030   -0.23842E-05
   62   44    1  -0.0015   -0.26375E-05
   62   46    1  -0.0017   -0.26894E-03
   62   47    1   0.0027    0.15306E-03
   62   48    1   0.0018    0.11253E-03
   62  112    1  -0.0013   -0.40770E-04
   62  113    1  -0.0017   -0.61750E-04
   62  114    1  -0.0020   -0.66757E-04
   62  115    1  -0.0035   -0.56028E-04
   62  116    1  -0.2592   -0.81062E-02
   63   10    1-200.0000   -0.12684E+03
   63   11    1  -0.2574   -0.85032E-02
   63   12    1   0.0032    0.85235E-05
   63   13    1   0.0100    0.14293E-03
   63   19    1   0.0025    0.91791E-04
   63   20    1   0.0025    0.13924E-03
   63   21    1   0.0011    0.10204E-03
   63   22    1   0.0025    0.10204E-03
   63   23    1   0.0042    0.92506E-04
   63   24    1  -0.0091   -0.94026E-05
   63   25    1  -0.0031   -0.18954E-04
   63   30    1  -0.0027   -0.23544E-04
   63   32    1  -0.0014   -0.11683E-04
   63   46    1  -0.0022   -0.22316E-03
   63   49    1  -0.0015   -0.15640E-03
    
 TRAVEL TIME SUMMARY FOR ALL PARTICLES:
 MINIMUM TRAVEL TIME =   0.00000E+00
 MAXIMUM TRAVEL TIME =   4.58938E+05
 AVERAGE TRAVEL TIME =   3.60375E+04
   77.9% OF THE PARTICLES HAD TRAVEL TIMES LESS THAN THEAVERAGE TRAVEL TIME
    
       0 PARTICLES REMAIN ACTIVE
      68 PARTICLES STOPPED AT INTERNAL SINKS/SOURCES OR BOUNDARIES
       0 PARTICLES STOPPED IN AN AUTOMATIC TERMINATION ZONE
       0 PARTICLES WERE STRANDED IN INACTIVE CELLS
       0 PARTICLES WERE NOT RELEASED
 -----
      68 PARTICLES ACCOUNTED FOR OUT OF A TOTAL OF      68
